geometry optimzed in LAMMPS
_audit_creation_date              2020-11-30 
_audit_creation_method            'lammps2cif' 
_symmetry_space_group_name_H-M    'P1' 
_symmetry_Int_Tables_number       1 
_symmetry_cell_setting            triclinic 
loop_ 
_symmetry_equiv_pos_as_xyz 
  x,y,z 
_cell_length_a                    49.92138074 
_cell_length_b                    50.92911078937059 
_cell_length_c                    52.2948101394618 
_cell_angle_alpha                 90.14046519285228 
_cell_angle_beta                  89.35616366025846 
_cell_angle_gamma                 121.5963833267135 
loop_ 
_atom_site_label 
_atom_site_type_symbol 
_atom_site_fract_x 
_atom_site_fract_y 
_atom_site_fract_z 
_atom_site_charge 
O1          O  0.35514123  0.11127671  0.02589346    -0.79700
O2          O  0.36599438  0.22708520  0.97630582    -0.64400
O3          O  0.34997428  0.16311855  0.02409518    -1.11000
C4          C  0.26229119  0.10253851  0.97089142     1.07200
O5          O  0.31634129  0.21235689  0.98075604    -0.77600
O6          O  0.26937755  0.16204043  0.00213067    -0.65200
Ni7        Ni  0.38135077  0.15461248  0.03294305     1.34900
C8          C  0.27050486  0.15174021  0.02381276     0.85900
O9          O  0.39337872  0.22542891  0.02072843    -0.78200
O10         O  0.40935399  0.19715668  0.04136894    -0.88400
C11         C  0.34323729  0.23075105  0.97128475     0.85500
O12         O  0.40076999  0.16006542  0.00022964    -0.66600
O13         O  0.26729320  0.12779305  0.96138911    -0.85900
C14         C  0.40407902  0.17641164  0.98083398     0.86300
C15         C  0.41075305  0.22248556  0.03682689     1.07900
H16         H  0.33259408  0.15798739  0.96726985     0.39700
O17         O  0.32477963  0.16303704  0.98230234    -1.08600
O18         O  0.28760704  0.14057113  0.02844035    -0.65200
Ni19       Ni  0.31390004  0.13146568  0.00715204     1.26300
O20         O  0.38958772  0.19087253  0.97908514    -0.65500
O21         O  0.27790965  0.10064824  0.98912980    -0.77800
C22         C  0.32722987  0.09318755  0.03412811     0.85700
O23         O  0.30672565  0.10061426  0.03187892    -0.64900
Ni24       Ni  0.29280088  0.16995651  0.97119722     1.27400
Ni25       Ni  0.35978461  0.19537446  0.00036089     1.26100
H26         H  0.34336293  0.16803152  0.03990198     0.40200
O27         O  0.41087228  0.19688602  0.52304124    -0.79700
O28         O  0.29385051  0.18673963  0.47301765    -0.64400
O29         O  0.34768345  0.17853581  0.51965765    -1.11000
C30         C  0.33526220  0.09700242  0.46825751     1.07200
O31         O  0.26629759  0.13797967  0.45989981    -0.77600
O32         O  0.27338282  0.10582014  0.49765650    -0.65200
Ni33       Ni  0.38528483  0.21348055  0.53195036     1.34900
C34         C  0.28669570  0.10455739  0.51779923     0.85900
O35         O  0.31921693  0.21364316  0.51782390    -0.78200
O36         O  0.36287099  0.23299331  0.54172577    -0.88400
C37         C  0.27014651  0.16465102  0.46188246     0.85500
O38         O  0.39881833  0.23603668  0.50098555    -0.66600
O39         O  0.30818747  0.09285239  0.46450692    -0.85900
C40         C  0.38508951  0.23518600  0.48057040     0.86300
C41         C  0.33803593  0.23216747  0.53478416     1.07900
H42         H  0.33969815  0.16500080  0.46088220     0.39700
O43         O  0.32674448  0.15471146  0.47574373    -1.08600
O44         O  0.31646378  0.11653888  0.51919733    -0.65200
Ni45       Ni  0.35210723  0.14929421  0.50016361     1.26300
O46         O  0.35587773  0.21686873  0.47676271    -0.65500
O47         O  0.35665769  0.12054455  0.47976422    -0.77800
C48         C  0.40498349  0.17084772  0.53075393     0.85700
O49         O  0.37887836  0.14684772  0.52513992    -0.64900
Ni50       Ni  0.28978361  0.11805467  0.46398291     1.27400
Ni51       Ni  0.32188687  0.18392979  0.49628528     1.26100
H52         H  0.33491276  0.16843971  0.53466638     0.40200
O53         O  0.40265612  0.02996358  0.72338580    -0.73300
O54         O  0.37361339  0.47093203  0.77904717    -0.73300
O55         O  0.40046881  0.03273854  0.77535783    -0.73400
O56         O  0.37397488  0.46730878  0.72684568    -0.73400
O57         O  0.42172075  0.47373884  0.72652884    -0.73300
O58         O  0.44698450  0.03668635  0.77835669    -0.73300
O59         O  0.41998289  0.47468314  0.77857706    -0.73300
O60         O  0.45019114  0.03624134  0.72642300    -0.73400
Ni61       Ni  0.38595526  0.99998312  0.75102178     1.25400
Ni62       Ni  0.43636332  0.00548944  0.75248755     1.25400
C63         C  0.43166127  0.04334671  0.71624010     0.88900
C64         C  0.39250974  0.46351523  0.78835919     0.88800
C65         C  0.42772616  0.04502239  0.78525969     0.88900
C66         C  0.39332020  0.45992660  0.71840023     0.89000
O67         O  0.10316676  0.06520209  0.73102633    -0.73300
O68         O  0.06117743  0.09201907  0.77669244    -0.73300
O69         O  0.06610167  0.08911417  0.72512231    -0.73400
O70         O  0.09852908  0.06832622  0.78272755    -0.73400
O71         O  0.14156935  0.11547933  0.78231090    -0.73300
O72         O  0.10841946  0.13622111  0.72492840    -0.73300
O73         O  0.10373450  0.13925596  0.77682882    -0.73300
O74         O  0.14555908  0.11273529  0.73040433    -0.73400
Ni75       Ni  0.08078458  0.07701061  0.75395687     1.25400
Ni76       Ni  0.12631058  0.12762850  0.75369311     1.25400
C77         C  0.13095996  0.08469361  0.72271339     0.88900
C78         C  0.07539817  0.12005678  0.78435447     0.88800
C79         C  0.08205251  0.11609335  0.71512141     0.88900
C80         C  0.12544124  0.08824172  0.79180133     0.89000
O81         O  0.03293757  0.45520186  0.76947010    -0.73300
O82         O  0.47113143  0.41600322  0.71771585    -0.73300
O83         O  0.47012827  0.41721134  0.76937199    -0.73400
O84         O  0.03407357  0.45418031  0.71799941    -0.73400
O85         O  0.03788723  0.41266398  0.71751255    -0.73300
O86         O  0.47698193  0.37731577  0.77170322    -0.73300
O87         O  0.47492493  0.37427417  0.72000612    -0.73300
O88         O  0.03991878  0.41532692  0.76929182    -0.73400
Ni89       Ni  0.00184792  0.43708779  0.74355786     1.25400
Ni90       Ni  0.00767655  0.39343214  0.74465246     1.25400
C91         C  0.04637600  0.44150152  0.77800746     0.88900
C92         C  0.46274199  0.38871774  0.71052726     0.88800
C93         C  0.46352830  0.39155278  0.77933765     0.88900
C94         C  0.04630171  0.43945627  0.70885913     0.89000
C95         C  0.02701871  0.17645768  0.59382602     0.03400
C96         C  0.49396800  0.16276487  0.59649614     0.03400
C97         C  0.47801079  0.14251588  0.61704288    -0.17100
C98         C  0.49347596  0.13410332  0.63447752     0.03400
C99         C  0.02644365  0.14664254  0.63110886     0.03400
C100        C  0.04244390  0.16739749  0.61074301    -0.17100
H101        H  0.06745492  0.17694641  0.60810688     0.05500
H102        H  0.45295555  0.13299449  0.61936114     0.05500
C103        C  0.19973021  0.03585827  0.60140588     0.03400
C104        C  0.17649688  0.50462320  0.59696205     0.03400
C105        C  0.15092176  0.48945920  0.61367671    -0.17100
C106        C  0.14811028  0.50405183  0.63526108     0.03400
C107        C  0.17131668  0.03525940  0.64051934     0.03400
C108        C  0.19699086  0.05079312  0.62324993    -0.17100
H109        H  0.21450862  0.07486937  0.62638012     0.05500
H110        H  0.13312231  0.46552219  0.61010504     0.05500
C111        C  0.33412308  0.33998978  0.90599196     0.03400
C112        C  0.34973193  0.32367708  0.90248096     0.03400
C113        C  0.36870638  0.32974856  0.88075061    -0.17100
C114        C  0.37468966  0.35325107  0.86340484     0.03400
C115        C  0.36098993  0.37132183  0.86788075     0.03400
C116        C  0.34071370  0.36417160  0.88904075    -0.17100
H117        H  0.32929265  0.37710927  0.89208098     0.05500
H118        H  0.37919564  0.31600564  0.87742442     0.05500
C119        C  0.33178649  0.31889041  0.60191642     0.03400
C120        C  0.31539310  0.33474635  0.60366754     0.03400
C121        C  0.32334350  0.35705961  0.62298006    -0.17100
C122        C  0.34746113  0.36419665  0.64033682     0.03400
C123        C  0.36309149  0.34782912  0.63878081     0.03400
C124        C  0.35482872  0.32521863  0.62011820    -0.17100
H125        H  0.36764524  0.31340634  0.61898844     0.05500
H126        H  0.31130822  0.36962293  0.62397993     0.05500
C127        C  0.17006634  0.01245577  0.90612202     0.03400
C128        C  0.15200189  0.48007876  0.90218291     0.03400
C129        C  0.13189522  0.46891781  0.88100830    -0.17100
C130        C  0.13008203  0.48905126  0.86379377     0.03400
C131        C  0.14870753  0.02118372  0.86740406     0.03400
C132        C  0.16857203  0.03241790  0.88836352    -0.17100
H133        H  0.18266994  0.05715690  0.89121761     0.05500
H134        H  0.11768096  0.44428447  0.87773523     0.05500
C135        C  0.48321711  0.17294520  0.89782107     0.03400
C136        C  0.01679554  0.19045051  0.89548703     0.03400
C137        C  0.03108560  0.18414600  0.87476927    -0.17100
C138        C  0.01360844  0.15971288  0.85778561     0.03400
C139        C  0.48042775  0.14263215  0.86002520     0.03400
C140        C  0.46575846  0.14962099  0.87970923    -0.17100
H141        H  0.44033180  0.13602696  0.88139359     0.05500
H142        H  0.05648511  0.19729529  0.87274224     0.05500
O143        O  0.23304276  0.36619163  0.53843631    -0.79700
O144        O  0.12334038  0.36419072  0.47409945    -0.64400
O145        O  0.17496871  0.35484979  0.52272491    -1.11000
C146        C  0.15756992  0.27497584  0.46407696     1.07200
O147        O  0.08973522  0.31440918  0.47905297    -0.77600
O148        O  0.09817608  0.27031114  0.49774000    -0.65200
Ni149      Ni  0.21535778  0.39032459  0.52921419     1.34900
C150        C  0.11002345  0.27147399  0.51934522     0.85900
O151        O  0.15118134  0.39343650  0.51854360    -0.78200
O152        O  0.20283188  0.41930598  0.52176323    -0.88400
C153        C  0.09637995  0.34029693  0.47017289     0.85500
O154        O  0.22733984  0.39136542  0.49470128    -0.66600
O155        O  0.13431263  0.27629957  0.45584176    -0.85900
C156        C  0.21540287  0.39753769  0.47606764     0.86300
C157        C  0.17656441  0.41645784  0.52670557     1.07900
H158        H  0.16431587  0.33791593  0.46505809     0.39700
O159        O  0.15113471  0.32928873  0.48006018    -1.08600
O160        O  0.13851983  0.29163174  0.52462043    -0.65200
Ni161      Ni  0.17448879  0.32173549  0.50415255     1.26300
O162        O  0.18694298  0.39149540  0.47691501    -0.65500
O163        O  0.17366385  0.28955282  0.48372307    -0.77800
C164        C  0.22502388  0.33803013  0.53872283     0.85700
O165        O  0.20015867  0.31670407  0.52827203    -0.64900
Ni166      Ni  0.11268714  0.29586193  0.46792118     1.27400
Ni167      Ni  0.15068091  0.36155062  0.49828904     1.26100
H168        H  0.16322956  0.34737022  0.53875342     0.40200
O169        O  0.19159958  0.39851074  0.96877384    -0.79700
O170        O  0.18793502  0.29134362  0.02880524    -0.64400
O171        O  0.17602920  0.33721550  0.97676407    -1.11000
C172        C  0.09017126  0.31712768  0.02958752     1.07200
O173        O  0.13790247  0.25383503  0.02659708    -0.77600
O174        O  0.10053450  0.26114209  0.99395500    -0.65200
Ni175      Ni  0.21070537  0.37451526  0.96304638     1.34900
C176        C  0.09854161  0.27540178  0.97491721     0.85900
O177        O  0.21808168  0.31647291  0.98472074    -0.78200
O178        O  0.23249782  0.35369574  0.95518650    -0.88400
C179        C  0.16603126  0.26368591  0.03353079     0.85500
O180        O  0.23364880  0.39113974  0.99394023    -0.66600
O181        O  0.08714607  0.29071364  0.03191413    -0.85900
C182        C  0.23123660  0.38058405  0.01637425     0.86300
C183        C  0.23424845  0.33193343  0.96532843     1.07900
H184        H  0.15618422  0.32552548  0.03532410     0.39700
O185        O  0.14915684  0.31407399  0.01957445    -1.08600
O186        O  0.11171330  0.30466472  0.97442391    -0.65200
Ni187      Ni  0.14328562  0.33845630  0.99513681     1.26300
O188        O  0.21235691  0.35221972  0.02221419    -0.65500
O189        O  0.11149048  0.33870366  0.01567279    -0.77800
C190        C  0.16368697  0.39075322  0.96334433     0.85700
O191        O  0.14030428  0.36494715  0.97057672    -0.64900
Ni192      Ni  0.11415044  0.27425084  0.02804416     1.27400
Ni193      Ni  0.18378004  0.31543196  0.00269230     1.26100
H194        H  0.16687170  0.32338071  0.96245775     0.40200
O195        O  0.46270086  0.08845571  0.22027028    -0.73300
O196        O  0.02812156  0.12572204  0.27038769    -0.73300
O197        O  0.02664628  0.12252053  0.21812770    -0.73400
O198        O  0.46419708  0.09027770  0.27288343    -0.73400
O199        O  0.46548248  0.04732314  0.27273538    -0.73300
O200        O  0.02898042  0.08020537  0.22062866    -0.73300
O201        O  0.02933466  0.08264540  0.27254742    -0.73300
O202        O  0.46512383  0.04598107  0.22055652    -0.73400
Ni203      Ni  0.49529881  0.10825302  0.24536096     1.25400
Ni204      Ni  0.49726383  0.06255080  0.24664865     1.25400
C205        C  0.45350556  0.06144729  0.21178630     0.88900
C206        C  0.03928312  0.11034806  0.27993515     0.88800
C207        C  0.03809758  0.10636524  0.21032842     0.88900
C208        C  0.45495636  0.06341038  0.28219946     0.89000
O209        O  0.39457887  0.43366316  0.27522531    -0.73300
O210        O  0.43672462  0.40989834  0.22761199    -0.73300
O211        O  0.40205486  0.43597160  0.22413092    -0.73400
O212        O  0.42950548  0.40749234  0.27893934    -0.73400
O213        O  0.38645087  0.36052002  0.27558672    -0.73300
O214        O  0.35819483  0.38961127  0.22125000    -0.73300
O215        O  0.39291004  0.36355632  0.22390511    -0.73300
O216        O  0.35121890  0.38679720  0.27294192    -0.73400
Ni217      Ni  0.41723792  0.42337948  0.25163576     1.25400
Ni218      Ni  0.37057368  0.37339539  0.24836450     1.25400
C219        C  0.36615149  0.41420144  0.28201267     0.88900
C220        C  0.42146870  0.38313594  0.21745672     0.88800
C221        C  0.37591053  0.41741895  0.21341725     0.88900
C222        C  0.41263736  0.37940326  0.28620745     0.89000
C223        C  0.31792424  0.47466093  0.40586609     0.03400
C224        C  0.34211570  0.00657075  0.40947268     0.03400
C225        C  0.36246435  0.02144534  0.38800519    -0.17100
C226        C  0.36328930  0.00556334  0.36627158     0.03400
C227        C  0.34140266  0.47359315  0.36443382     0.03400
C228        C  0.31851039  0.45912574  0.38366294    -0.17100
H229        H  0.30071454  0.43492097  0.38133129     0.05500
H230        H  0.37823632  0.04611739  0.38758039     0.05500
O231        O  0.08771501  0.46586327  0.27877705    -0.73300
O232        O  0.13426435  0.03353358  0.23235124    -0.73300
O233        O  0.12636545  0.02793618  0.28397554    -0.73400
O234        O  0.09645123  0.47241333  0.22733778    -0.73400
O235        O  0.05520706  0.47763802  0.22446053    -0.73300
O236        O  0.08447555  0.03263992  0.28144826    -0.73300
O237        O  0.09286871  0.03909766  0.22997696    -0.73300
O238        O  0.04622480  0.47095958  0.27544122    -0.73400
Ni239      Ni  0.11265061  0.49969589  0.25584671     1.25400
Ni240      Ni  0.06822902  0.50527587  0.25278810     1.25400
C241        C  0.05923049  0.45718284  0.28468801     0.88900
C242        C  0.12075654  0.04686181  0.22307060     0.88800
C243        C  0.11063256  0.03984646  0.29174068     0.88900
C244        C  0.07130837  0.46643067  0.21597143     0.89000
C245        C  0.31338899  0.46744830  0.09432058     0.03400
C246        C  0.32631520  0.99980177  0.09591199     0.03400
C247        C  0.34768611  0.01686744  0.11561406    -0.17100
C248        C  0.35656952  0.00257519  0.13372868     0.03400
C249        C  0.34308684  0.47032727  0.13205159     0.03400
C250        C  0.32193033  0.45332877  0.11263107    -0.17100
H251        H  0.31225116  0.42867694  0.11158784     0.05500
H252        H  0.35797101  0.04160226  0.11650468     0.05500
C253        C  0.17831552  0.17042145  0.39913735     0.03400
C254        C  0.16161851  0.18608115  0.39842902     0.03400
C255        C  0.13982496  0.17912023  0.37852521    -0.17100
C256        C  0.13418607  0.15716841  0.35960939     0.03400
C257        C  0.15103582  0.14196576  0.36058374     0.03400
C258        C  0.17323331  0.14932654  0.37965272    -0.17100
H259        H  0.18548633  0.13694125  0.38020587     0.05500
H260        H  0.12688140  0.19079289  0.37788066     0.05500
C261        C  0.17140004  0.17395271  0.09800454     0.03400
C262        C  0.18971058  0.16013816  0.10010566     0.03400
C263        C  0.18563822  0.14204287  0.12181366    -0.17100
C264        C  0.16160117  0.13430833  0.13997123     0.03400
C265        C  0.14121050  0.14567485  0.13644674     0.03400
C266        C  0.14699809  0.16582167  0.11590815    -0.17100
H267        H  0.13196754  0.17511028  0.11358404     0.05500
H268        H  0.20081299  0.13291555  0.12401773     0.05500
C269        C  0.47031478  0.32390783  0.40601850     0.03400
C270        C  0.00381060  0.34101633  0.40458249     0.03400
C271        C  0.01890086  0.36243244  0.38452061    -0.17100
C272        C  0.00166305  0.36701016  0.36607234     0.03400
C273        C  0.46852140  0.34964004  0.36744847     0.03400
C274        C  0.45334260  0.32813178  0.38695413    -0.17100
H275        H  0.42782517  0.31481122  0.38753863     0.05500
H276        H  0.04437941  0.37586776  0.38336481     0.05500
C277        C  0.48506892  0.32972708  0.09956071     0.03400
C278        C  0.01773346  0.34986241  0.09576327     0.03400
C279        C  0.03417660  0.37556556  0.11158001    -0.17100
C280        C  0.01892198  0.38055406  0.13202354     0.03400
C281        C  0.48616486  0.35974641  0.13619292     0.03400
C282        C  0.46971187  0.33490609  0.11959163    -0.17100
H283        H  0.44471428  0.31894534  0.12262913     0.05500
H284        H  0.05928512  0.39095306  0.10869136     0.05500
C285        C  0.04182382  0.43196920  0.30366065    -0.04200
C286        C  0.04525174  0.40611543  0.30397096    -0.01300
C287        C  0.03251134  0.38482542  0.32446886     0.03700
C288        C  0.01829513  0.39049541  0.34552960    -0.04200
C289        C  0.01685893  0.41735039  0.34567446    -0.01300
C290        C  0.02455177  0.43542076  0.32351600     0.03700
C291        C  0.05988992  0.40025645  0.28239820     0.38300
C292        C  0.01112985  0.42846893  0.36936370     0.38300
C293        C  0.01306805  0.45615179  0.32086467     0.36800
C294        C  0.03483355  0.35766871  0.32402992     0.36800
N295        N  0.00319276  0.97209787  0.31845617    -0.38100
N296        N  0.03714985  0.33624855  0.32315668    -0.38100
N297        N  0.00794339  0.43828291  0.38835741    -0.37500
N298        N  0.07132952  0.39542523  0.26510458    -0.37500
C299        C  0.06098426  0.44681313  0.19237511    -0.04200
C300        C  0.03976105  0.44792218  0.17509845    -0.01300
C301        C  0.02947680  0.42904046  0.15332252     0.03700
C302        C  0.03763565  0.40675324  0.14970771    -0.04200
C303        C  0.06098971  0.40740615  0.16514077    -0.01300
C304        C  0.07285735  0.42748298  0.18625408     0.03700
C305        C  0.02757019  0.46783396  0.17957947     0.38300
C306        C  0.07187904  0.38642838  0.16007684     0.38300
C307        C  0.09650292  0.42704571  0.20184355     0.36800
C308        C  0.51057724  0.43264656  0.13437983     0.36800
N309        N  0.11554546  0.42667198  0.21398823    -0.38100
N310        N  0.49587908  0.43592569  0.11919497    -0.38100
N311        N  0.08075336  0.36986885  0.15609475    -0.37500
N312        N  0.51731819  0.48324501  0.18340583    -0.37500
C313        C  0.12362150  0.06384777  0.31182554    -0.04200
C314        C  0.10545874  0.06105731  0.33364026    -0.01300
C315        C  0.11465723  0.08656656  0.34962526     0.03700
C316        C  0.14252930  0.11486635  0.34422654    -0.04200
C317        C  0.16299255  0.11638074  0.32464957    -0.01300
C318        C  0.15348577  0.09092026  0.30836421     0.03700
C319        C  0.07955106  0.03126476  0.34164369     0.38300
C320        C  0.19387065  0.14390898  0.32144446     0.38300
C321        C  0.17443560  0.09261300  0.28811267     0.36800
C322        C  0.09630099  0.08313751  0.37248951     0.36800
N323        N  0.19119170  0.09379422  0.27206433    -0.38100
N324        N  0.08165872  0.07997393  0.39080169    -0.38100
N325        N  0.21865619  0.16573912  0.31898827    -0.37500
N326        N  0.05976188  0.50803691  0.34998408    -0.37500
C327        C  0.13676229  0.07062011  0.20297651    -0.04200
C328        C  0.14551084  0.10129751  0.20765763    -0.01300
C329        C  0.15688392  0.12295340  0.18747626     0.03700
C330        C  0.15733824  0.11350605  0.16207273    -0.04200
C331        C  0.15181040  0.08345196  0.15804439    -0.01300
C332        C  0.14146613  0.06212960  0.17845883     0.03700
C333        C  0.14299821  0.11050120  0.23336567     0.38300
C334        C  0.15650018  0.07382881  0.13316973     0.38300
C335        C  0.13435943  0.03095780  0.17393538     0.36800
C336        C  0.16961943  0.15521384  0.19311070     0.36800
N337        N  0.12889304  0.00622919  0.17015686    -0.38100
N338        N  0.18029287  0.18096651  0.19799888    -0.38100
N339        N  0.16070142  0.06518802  0.11394916    -0.37500
N340        N  0.14097384  0.11754814  0.25400032    -0.37500
C341        C  0.42359658  0.36906308  0.30768632    -0.04200
C342        C  0.42952792  0.34501841  0.30448341    -0.01300
C343        C  0.44343962  0.33788519  0.32442038     0.03700
C344        C  0.44929994  0.35326838  0.34803079    -0.04200
C345        C  0.43934735  0.37423987  0.35213411    -0.01300
C346        C  0.42911240  0.38405655  0.33145262     0.03700
C347        C  0.42311083  0.32893155  0.28029521     0.38300
C348        C  0.93946315  0.38592936  0.37741060     0.38300
C349        C  0.42568679  0.41052063  0.33448675     0.36800
C350        C  0.45177219  0.31479206  0.32076806     0.36800
N351        N  0.92370435  0.43203783  0.33693528    -0.38100
N352        N  0.45840591  0.29633060  0.31801000    -0.38100
N353        N  0.93883044  0.39595115  0.39711863    -0.37500
N354        N  0.41801210  0.31604582  0.26101559    -0.37500
C355        C  0.43678947  0.37524318  0.19711050    -0.04200
C356        C  0.42653068  0.37227066  0.17164612    -0.01300
C357        C  0.44294995  0.36774027  0.15176523     0.03700
C358        C  0.46814595  0.36355339  0.15744284    -0.04200
C359        C  0.47601386  0.36321746  0.18328884    -0.01300
C360        C  0.46208900  0.37142869  0.20280343     0.03700
C361        C  0.39960054  0.37472838  0.16568802     0.38300
C362        C  0.99689819  0.35263900  0.19003716     0.38300
C363        C  0.47419025  0.37643549  0.22859560     0.36800
C364        C  0.43428090  0.36810760  0.12541090     0.36800
N365        N  0.98437802  0.38102470  0.24901233    -0.38100
N366        N  0.42750230  0.36845529  0.10437585    -0.38100
N367        N  0.01301235  0.34362724  0.19572532    -0.37500
N368        N  0.37797810  0.37631439  0.16064508    -0.37500
C369        C  0.34208872  0.45450280  0.34277916    -0.04200
C370        C  0.34750669  0.43028257  0.34759597    -0.01300
C371        C  0.34996356  0.41354296  0.32719644     0.03700
C372        C  0.35155696  0.42355164  0.30194423    -0.04200
C373        C  0.34374351  0.44586728  0.29681840    -0.01300
C374        C  0.33730877  0.46010397  0.31722231     0.03700
C375        C  0.35325685  0.42381830  0.37315828     0.38300
C376        C  0.34114668  0.45310205  0.27054615     0.38300
C377        C  0.32449198  0.47925707  0.31193404     0.36800
C378        C  0.35125016  0.38619985  0.33215761     0.36800
N379        N  0.31354919  0.49389191  0.30746252    -0.38100
N380        N  0.35170163  0.36408508  0.33610607    -0.38100
N381        N  0.33868791  0.45839507  0.24950103    -0.37500
N382        N  0.35900785  0.41816709  0.39298239    -0.37500
C383        C  0.36652926  0.42841814  0.19128468    -0.04200
C384        C  0.38902565  0.44609101  0.17205315    -0.01300
C385        C  0.38060417  0.45782373  0.15150057     0.03700
C386        C  0.35037179  0.45353219  0.15092768    -0.04200
C387        C  0.32727037  0.43412612  0.16904194    -0.01300
C388        C  0.33528658  0.42144506  0.18917774     0.03700
C389        C  0.42068044  0.45168507  0.17295805     0.38300
C390        C  0.29541423  0.42781135  0.16733710     0.38300
C391        C  0.31164922  0.40244349  0.20826535     0.36800
C392        C  0.40266226  0.47326654  0.13051523     0.36800
N393        N  0.29274627  0.38728837  0.22344648    -0.38100
N394        N  0.42044031  0.48508942  0.11380383    -0.38100
N395        N  0.27001284  0.42275833  0.16601383    -0.37500
N396        N  0.44591293  0.45618340  0.17362294    -0.37500
C397        C  0.43245885  0.05047230  0.30471384    -0.04200
C398        C  0.40882831  0.05760468  0.30888623    -0.01300
C399        C  0.38745608  0.04440294  0.32980945     0.03700
C400        C  0.38832303  0.02274829  0.34611630    -0.04200
C401        C  0.41312917  0.01733276  0.34316955    -0.01300
C402        C  0.43489021  0.03084522  0.32266221     0.03700
C403        C  0.40546442  0.07754593  0.29120528     0.38300
C404        C  0.41743001  0.49923265  0.36222793     0.38300
C405        C  0.46074295  0.52552949  0.32104476     0.36800
C406        C  0.36453069  0.05319411  0.33462871     0.36800
N407        N  0.48147664  0.52147892  0.31996124    -0.38100
N408        N  0.34637711  0.06034088  0.33867290    -0.38100
N409        N  0.42139695  0.48527970  0.37753744    -0.37500
N410        N  0.40254362  0.09326610  0.27702717    -0.37500
C411        C  0.42867847  0.04795223  0.19170474    -0.04200
C412        C  0.43677865  0.05350277  0.16544455    -0.01300
C413        C  0.41311388  0.04050535  0.14654618     0.03700
C414        C  0.38102797  0.02138207  0.15364558    -0.04200
C415        C  0.37288820  0.01821429  0.17996972    -0.01300
C416        C  0.39656971  0.03120804  0.19882650     0.03700
C417        C  0.46948265  0.07296094  0.15778521     0.38300
C418        C  0.34010761  0.50275513  0.18767212     0.38300
C419        C  0.38802131  0.52808736  0.22569839     0.36800
C420        C  0.42188468  0.04651006  0.11971272     0.36800
N421        N  0.38160447  0.52608583  0.24721926    -0.38100
N422        N  0.42889782  0.05129811  0.09829822    -0.38100
N423        N  0.31402096  0.49087350  0.19405110    -0.37500
N424        N  0.49545494  0.08871200  0.15137537    -0.37500
C425        C  0.10989484  0.14922612  0.33929689    -0.04200
C426        C  0.11889656  0.15568251  0.31321925    -0.01300
C427        C  0.09589530  0.14349337  0.29381046     0.03700
C428        C  0.06364483  0.12478719  0.30025662    -0.04200
C429        C  0.05457261  0.12145058  0.32630082    -0.01300
C430        C  0.07752000  0.13367740  0.34571057     0.03700
C431        C  0.15172403  0.17637562  0.30645659     0.38300
C432        C  0.02158205  0.10660381  0.33318442     0.38300
C433        C  0.06771351  0.13054738  0.37228859     0.36800
C434        C  0.10538034  0.15118758  0.26726602     0.36800
N435        N  0.05986324  0.12831459  0.39348484    -0.38100
N436        N  0.11329535  0.15776832  0.24617455    -0.38100
N437        N  0.99540718  0.09545209  0.33902181    -0.37500
N438        N  0.17781781  0.19335558  0.30097807    -0.37500
C439        C  0.11309564  0.13624032  0.15357175    -0.04200
C440        C  0.11048310  0.15837420  0.16806553    -0.01300
C441        C  0.08523141  0.14905484  0.18563355     0.03700
C442        C  0.06235483  0.11738953  0.18917421    -0.04200
C443        C  0.06342162  0.09567363  0.17276843    -0.01300
C444        C  0.08841984  0.10505022  0.15505699     0.03700
C445        C  0.13417844  0.19087195  0.16542201     0.38300
C446        C  0.03769617  0.06375330  0.17289755     0.38300
C447        C  0.08793642  0.08262100  0.13758102     0.36800
C448        C  0.08333784  0.17228350  0.20023610     0.36800
N449        N  0.08713875  0.06452503  0.12366553    -0.38100
N450        N  0.08187383  0.19093774  0.21175232    -0.38100
N451        N  0.51673993  0.03851441  0.17285713    -0.37500
N452        N  0.15294273  0.21684970  0.16339970    -0.37500
C453        C  0.17276577  0.24191507  0.04743030    -0.04200
C454        C  0.19046575  0.25120603  0.07019754    -0.01300
C455        C  0.19169976  0.22922361  0.08592318     0.03700
C456        C  0.17689170  0.19790962  0.07846684    -0.04200
C457        C  0.16119811  0.18909740  0.05486750    -0.01300
C458        C  0.15867380  0.21070890  0.03970091     0.03700
C459        C  0.20531592  0.28294217  0.07865547     0.38300
C460        C  0.14544949  0.15720469  0.04682546     0.38300
C461        C  0.14025548  0.20000797  0.01659626     0.36800
C462        C  0.20605014  0.23843917  0.11089697     0.36800
N463        N  0.12491175  0.19026334  0.99857020    -0.38100
N464        N  0.21729596  0.24586293  0.13088464    -0.38100
N465        N  0.13240010  0.13203226  0.03962187    -0.37500
N466        N  0.21716146  0.30827580  0.08534728    -0.37500
C467        C  0.06900925  0.32347959  0.04539820    -0.04200
C468        C  0.06045031  0.34447250  0.03690033    -0.01300
C469        C  0.04552151  0.35464860  0.05381248     0.03700
C470        C  0.03584213  0.34144306  0.07836933    -0.04200
C471        C  0.04360111  0.32003196  0.08681245    -0.01300
C472        C  0.06024530  0.31121732  0.07061510     0.03700
C473        C  0.06568626  0.35473071  0.01049428     0.38300
C474        C  0.03653008  0.30879222  0.11300808     0.38300
C475        C  0.06938858  0.29052434  0.08072705     0.36800
C476        C  0.04198503  0.38009032  0.04651035     0.36800
N477        N  0.07650849  0.27398246  0.08894871    -0.38100
N478        N  0.03985902  0.40086038  0.04079718    -0.38100
N479        N  0.03145978  0.30014201  0.13396926    -0.37500
N480        N  0.06926413  0.36268637  0.98936487    -0.37500
C481        C  0.29205246  0.44716971  0.07348790    -0.04200
C482        C  0.25901346  0.43008672  0.07715079    -0.01300
C483        C  0.23911667  0.40784188  0.05890287     0.03700
C484        C  0.25196745  0.40293434  0.03642754    -0.04200
C485        C  0.28499792  0.42026256  0.03279381    -0.01300
C486        C  0.30479668  0.44027332  0.05208664     0.03700
C487        C  0.24558842  0.43358078  0.10068499     0.38300
C488        C  0.29896866  0.41750832  0.00925935     0.38300
C489        C  0.33785035  0.45029787  0.05148425     0.36800
C490        C  0.20533623  0.39063659  0.06302000     0.36800
N491        N  0.36385266  0.45693680  0.05135524    -0.38100
N492        N  0.17840250  0.37707772  0.06646854    -0.38100
N493        N  0.31039644  0.41605229  0.99035754    -0.37500
N494        N  0.23466834  0.43578927  0.11959198    -0.37500
C495        C  0.16656964  0.21066124  0.41707019    -0.04200
C496        C  0.15748876  0.20381653  0.44316044    -0.01300
C497        C  0.15865683  0.22657508  0.45949091     0.03700
C498        C  0.16577975  0.25515745  0.44940810    -0.04200
C499        C  0.17565531  0.26246099  0.42366450    -0.01300
C500        C  0.17672868  0.24063516  0.40773447     0.03700
C501        C  0.14324686  0.17265766  0.45280788     0.38300
C502        C  0.18388905  0.29227283  0.41337158     0.38300
C503        C  0.18681705  0.24859159  0.38124635     0.36800
C504        C  0.15080343  0.22004804  0.48645424     0.36800
N505        N  0.19472320  0.25476776  0.36009820    -0.38100
N506        N  0.14490176  0.21515331  0.50803481    -0.38100
N507        N  0.19033215  0.31600144  0.40517595    -0.37500
N508        N  0.13094306  0.14805048  0.46136025    -0.37500
C509        C  0.02466391  0.33771960  0.42290188    -0.04200
C510        C  0.03044812  0.35115479  0.44750222    -0.01300
C511        C  0.05453198  0.35290059  0.46282765     0.03700
C512        C  0.07288220  0.34115843  0.45372730    -0.04200
C513        C  0.06674965  0.32717693  0.42944911    -0.01300
C514        C  0.04319525  0.32591433  0.41396991     0.03700
C515        C  0.51268385  0.36441467  0.45679424     0.38300
C516        C  0.08504322  0.31430314  0.42022792     0.38300
C517        C  0.03844980  0.31270875  0.38860848     0.36800
C518        C  0.06022671  0.36644913  0.48809940     0.36800
N519        N  0.03477626  0.30171017  0.36857932    -0.38100
N520        N  0.06470849  0.37721071  0.50828926    -0.38100
N521        N  0.09955354  0.30396210  0.41294483    -0.37500
N522        N  0.49900142  0.37531412  0.46475715    -0.37500
C523        C  0.29062652  0.45515902  0.42346765    -0.04200
C524        C  0.26506835  0.45975956  0.42603682    -0.01300
C525        C  0.23937588  0.44051535  0.44262296     0.03700
C526        C  0.23708007  0.41414665  0.45396571    -0.04200
C527        C  0.26028830  0.40715900  0.44785320    -0.01300
C528        C  0.28812077  0.42892258  0.43509046     0.03700
C529        C  0.26612544  0.48527403  0.41282782     0.38300
C530        C  0.25542007  0.37728837  0.45456765     0.38300
C531        C  0.31547037  0.42621406  0.43709601     0.36800
C532        C  0.21650854  0.44889666  0.44901521     0.36800
N533        N  0.33718286  0.42419041  0.44041953    -0.38100
N534        N  0.19839730  0.45574101  0.45429943    -0.38100
N535        N  0.25108378  0.35319712  0.45946076    -0.37500
N536        N  0.26715800  0.00578929  0.40236927    -0.37500
C537        C  0.03826716  0.21350211  0.91520056    -0.04200
C538        C  0.03752143  0.24028849  0.92117667    -0.01300
C539        C  0.05736492  0.26097592  0.94035671     0.03700
C540        C  0.07977722  0.25635361  0.95252283    -0.04200
C541        C  0.08302357  0.23175247  0.94424599    -0.01300
C542        C  0.06152928  0.20964737  0.92692564     0.03700
C543        C  0.01763447  0.24762385  0.90679936     0.38300
C544        C  0.11027122  0.23069371  0.95190345     0.38300
C545        C  0.06318299  0.18249752  0.92172064     0.36800
C546        C  0.05455788  0.28694031  0.94752689     0.36800
N547        N  0.06437360  0.16077272  0.91769026    -0.38100
N548        N  0.05232478  0.30771081  0.95312985    -0.38100
N549        N  0.13268323  0.23070692  0.95729605    -0.37500
N550        N  0.00231494  0.25420743  0.89530119    -0.37500
C551        C  0.15475666  0.45724765  0.91840864    -0.04200
C552        C  0.14371321  0.45096877  0.94406562    -0.01300
C553        C  0.14665341  0.42935230  0.95889340     0.03700
C554        C  0.15909953  0.41260843  0.94788439    -0.04200
C555        C  0.16900607  0.41793970  0.92203282    -0.01300
C556        C  0.16690072  0.44005763  0.90741550     0.03700
C557        C  0.12751778  0.46511110  0.95493239     0.38300
C558        C  0.18120863  0.40035332  0.91032463     0.38300
C559        C  0.17765668  0.44524645  0.88098311     0.36800
C560        C  0.13788959  0.42510704  0.98576085     0.36800
N561        N  0.18654367  0.44934777  0.85999536    -0.38100
N562        N  0.13122017  0.42197590  0.00727801    -0.38100
N563        N  0.19085575  0.38628294  0.90096720    -0.37500
N564        N  0.11385971  0.47543824  0.96408848    -0.37500
C565        C  0.29141996  0.33062173  0.58475565    -0.04200
C566        C  0.30114909  0.34767143  0.56173445    -0.01300
C567        C  0.27879937  0.34739784  0.54535317     0.03700
C568        C  0.24653129  0.33095119  0.55220988    -0.04200
C569        C  0.23660388  0.31314800  0.57485311    -0.01300
C570        C  0.25907429  0.31371989  0.59144557     0.03700
C571        C  0.33432214  0.36882253  0.55639997     0.38300
C572        C  0.20353425  0.29606196  0.58199190     0.38300
C573        C  0.24927284  0.29974459  0.61661050     0.36800
C574        C  0.28937263  0.36539089  0.52188927     0.36800
N575        N  0.24153451  0.28909318  0.63686691    -0.38100
N576        N  0.29831474  0.37998688  0.50334300    -0.38100
N577        N  0.17712958  0.28232747  0.58762241    -0.37500
N578        N  0.36052617  0.38665018  0.55200508    -0.37500
C579        C  0.25682835  0.32495010  0.95351687    -0.04200
C580        C  0.25140577  0.31269129  0.92864491    -0.01300
C581        C  0.27632745  0.31452509  0.91419007     0.03700
C582        C  0.30716200  0.32985849  0.92416654    -0.04200
C583        C  0.31186992  0.34005133  0.94983643    -0.01300
C584        C  0.28627721  0.33605325  0.96483385     0.03700
C585        C  0.22035545  0.29922273  0.91764549     0.38300
C586        C  0.34316811  0.35782508  0.96020586     0.38300
C587        C  0.29049890  0.34480960  0.99157726     0.36800
C588        C  0.27063551  0.30281771  0.88824396     0.36800
N589        N  0.29358419  0.35127792  0.01302735    -0.38100
N590        N  0.26582357  0.29348119  0.86754470    -0.38100
N591        N  0.36762718  0.37282439  0.96936276    -0.37500
N592        N  0.19557155  0.28846797  0.90893285    -0.37500
C593        C  0.17941527  0.48528117  0.57702840    -0.04200
C594        C  0.19382644  0.46875593  0.58373147    -0.01300
C595        C  0.19284985  0.44661688  0.56705011     0.03700
C596        C  0.17669190  0.43999165  0.54360650    -0.04200
C597        C  0.16148092  0.45581613  0.53705807    -0.01300
C598        C  0.16260007  0.47823459  0.55386314     0.03700
C599        C  0.20732135  0.47240588  0.60888484     0.38300
C600        C  0.14481817  0.44914204  0.51310073     0.38300
C601        C  0.14476238  0.49250340  0.54805505     0.36800
C602        C  0.20699880  0.42922411  0.57489047     0.36800
N603        N  0.12996792  0.50328680  0.54329202    -0.38100
N604        N  0.21819637  0.41532162  0.58111033    -0.38100
N605        N  0.13151789  0.44388549  0.49398034    -0.37500
N606        N  0.21783799  0.97468667  0.62895782    -0.37500
C607        C  0.08921678  0.24739431  0.53878181    -0.04200
C608        C  0.07164490  0.21587622  0.53169973    -0.01300
C609        C  0.05181184  0.19285690  0.54965231     0.03700
C610        C  0.04681109  0.20096982  0.57429651    -0.04200
C611        C  0.06433635  0.23245192  0.58145987    -0.01300
C612        C  0.08589510  0.25539396  0.56404832     0.03700
C613        C  0.07465692  0.20675665  0.50602338     0.38300
C614        C  0.06092292  0.24128081  0.60709723     0.38300
C615        C  0.10437680  0.28726881  0.57217923     0.36800
C616        C  0.03885222  0.16075401  0.54329275     0.36800
N617        N  0.11923813  0.31261522  0.57887982    -0.38100
N618        N  0.02973204  0.13541368  0.53789294    -0.38100
N619        N  0.05843940  0.24863302  0.62751432    -0.37500
N620        N  0.07677580  0.19941449  0.48550347    -0.37500
C621        C  0.44000789  0.37842772  0.80019696    -0.04200
C622        C  0.44863333  0.37407463  0.82465850    -0.01300
C623        C  0.42742698  0.36586615  0.84537785     0.03700
C624        C  0.39642656  0.35922832  0.84124908    -0.04200
C625        C  0.38677088  0.35938066  0.81595212    -0.01300
C626        C  0.40908253  0.37122581  0.79590441     0.03700
C627        C  0.47972111  0.37915680  0.82878227     0.38300
C628        C  0.35377798  0.34581627  0.81015841     0.38300
C629        C  0.40028300  0.37605882  0.77081545     0.36800
C630        C  0.43811951  0.36521004  0.87092207     0.36800
N631        N  0.39379474  0.38043440  0.75077045    -0.38100
N632        N  0.44689452  0.36461877  0.89117279    -0.38100
N633        N  0.32752785  0.33453451  0.80497806    -0.37500
N634        N  0.50436724  0.38293085  0.83219718    -0.37500
C635        C  0.06850224  0.45524370  0.79932752    -0.04200
C636        C  0.09896569  0.46011153  0.79723224    -0.01300
C637        C  0.11892687  0.47054748  0.81850004     0.03700
C638        C  0.10844854  0.47611050  0.84189669    -0.04200
C639        C  0.07761776  0.47024678  0.84420102    -0.01300
C640        C  0.05808363  0.46095360  0.82271638     0.03700
C641        C  0.11018403  0.45536819  0.77297995     0.38300
C642        C  0.06521931  0.97179269  0.86898720     0.38300
C643        C  0.02690212  0.95641350  0.82494547     0.36800
C644        C  0.14979829  0.47448325  0.81644236     0.36800
N645        N  0.00210066  0.95291493  0.82669208    -0.38100
N646        N  0.17423328  0.47721718  0.81435984    -0.38100
N647        N  0.05471636  0.97220450  0.88871580    -0.37500
N648        N  0.11947802  0.45198419  0.75365533    -0.37500
C649        C  0.07071866  0.45395516  0.68815605    -0.04200
C650        C  0.09264565  0.44457545  0.68389742    -0.01300
C651        C  0.11710428  0.46016893  0.66581650     0.03700
C652        C  0.12031278  0.48552127  0.65211998    -0.04200
C653        C  0.09693134  0.49289881  0.65426750    -0.01300
C654        C  0.07256126  0.47766931  0.67246597     0.03700
C655        C  0.09107676  0.41947754  0.69834298     0.38300
C656        C  0.09728434  0.01534541  0.63695916     0.38300
C657        C  0.04886066  0.98591146  0.67402883     0.36800
C658        C  0.13944377  0.45040943  0.66179428     0.36800
N659        N  0.02961440  0.99205437  0.67492135    -0.38100
N660        N  0.15694671  0.44224948  0.65878264    -0.38100
N661        N  0.09730187  0.03297637  0.62302876    -0.37500
N662        N  0.09009650  0.39946047  0.70962869    -0.37500
C663        C  0.38958383  0.35521959  0.65581722    -0.04200
C664        C  0.42036790  0.37879426  0.64900360    -0.01300
C665        C  0.44498038  0.38775378  0.66625032     0.03700
C666        C  0.43869808  0.37416049  0.69068152    -0.04200
C667        C  0.40875172  0.34833445  0.69643144    -0.01300
C668        C  0.38420953  0.33863090  0.67879597     0.03700
C669        C  0.42708894  0.39393411  0.62431285     0.38300
C670        C  0.40317503  0.33193498  0.72041149     0.38300
C671        C  0.35359843  0.31152793  0.68411025     0.36800
C672        C  0.47708031  0.40933257  0.65811960     0.36800
N673        N  0.32925548  0.28967792  0.68819350    -0.38100
N674        N  0.00249557  0.42559792  0.65069107    -0.38100
N675        N  0.39870089  0.31869438  0.73947944    -0.37500
N676        N  0.43362289  0.40678665  0.60489915    -0.37500
C677        C  0.05900483  0.13022343  0.80262701    -0.04200
C678        C  0.04049178  0.11091113  0.82321231    -0.01300
C679        C  0.02876244  0.12204621  0.84233878     0.03700
C680        C  0.03045443  0.15041882  0.83915493    -0.04200
C681        C  0.04758733  0.16925492  0.81802764    -0.01300
C682        C  0.06253243  0.15966021  0.80032217     0.03700
C683        C  0.03352168  0.07952536  0.82515529     0.38300
C684        C  0.05001539  0.19866152  0.81454230     0.38300
C685        C  0.08047210  0.17978354  0.77915435     0.36800
C686        C  0.51748799  0.10546690  0.86637491     0.36800
N687        N  0.09482999  0.19608630  0.76238123    -0.38100
N688        N  0.50948749  0.09252053  0.88574828    -0.38100
N689        N  0.05199543  0.22214917  0.81170507    -0.37500
N690        N  0.52779138  0.05442773  0.82675349    -0.37500
C691        C  0.14702848  0.04343497  0.84983283    -0.04200
C692        C  0.12633778  0.05382957  0.85530440    -0.01300
C693        C  0.12241378  0.07217179  0.83740353     0.03700
C694        C  0.13763015  0.07874238  0.81340913    -0.04200
C695        C  0.16168911  0.07239694  0.80948779    -0.01300
C696        C  0.16666051  0.05506675  0.82787733     0.03700
C697        C  0.10921890  0.04611404  0.87936607     0.38300
C698        C  0.18167312  0.08429093  0.78691526     0.38300
C699        C  0.19246116  0.05000405  0.82464357     0.36800
C700        C  0.10543490  0.08698994  0.84466238     0.36800
N701        N  0.21345241  0.04648831  0.82227765    -0.38100
N702        N  0.09330706  0.09992928  0.85139723    -0.38100
N703        N  0.19794429  0.09417486  0.76908344    -0.37500
N704        N  0.09510202  0.04044275  0.89834514    -0.37500
C705        C  0.14575934  0.07494753  0.70287372    -0.04200
C706        C  0.15349576  0.08915378  0.67852993    -0.01300
C707        C  0.16371733  0.07754259  0.65852802     0.03700
C708        C  0.16733162  0.05207019  0.66279959    -0.04200
C709        C  0.16346869  0.04064938  0.68815405    -0.01300
C710        C  0.15120058  0.05088064  0.70768503     0.03700
C711        C  0.14925794  0.11479176  0.67360064     0.38300
C712        C  0.17320306  0.51922227  0.69451263     0.38300
C713        C  0.14407430  0.03655322  0.73276707     0.36800
C714        C  0.16942136  0.09150623  0.63341230     0.36800
N715        N  0.13815826  0.02505894  0.75276697    -0.38100
N716        N  0.17406829  0.10344756  0.61369033    -0.38100
N717        N  0.18131207  0.50251789  0.70014630    -0.37500
N718        N  0.14595885  0.13528314  0.66971246    -0.37500
C719        C  0.04479628  0.13924474  0.64932386    -0.04200
C720        C  0.03560228  0.10839785  0.65414459    -0.01300
C721        C  0.04664773  0.10067376  0.67592096     0.03700
C722        C  0.07002497  0.12410845  0.69177887    -0.04200
C723        C  0.08232300  0.15537837  0.68458577    -0.01300
C724        C  0.06969814  0.16278745  0.66368502     0.03700
C725        C  0.01536595  0.08460553  0.63614880     0.38300
C726        C  0.10730330  0.18055358  0.69898654     0.38300
C727        C  0.58210783  0.19496230  0.65755581     0.36800
C728        C  0.03279863  0.06833594  0.68202296     0.36800
N729        N  0.59269130  0.22075488  0.65278783    -0.38100
N730        N  0.02098821  0.04247299  0.68708531    -0.38100
N731        N  0.62736943  0.20088185  0.71014994    -0.37500
N732        N  0.99966586  0.06566662  0.62162146    -0.37500
C733        C  0.43702385  0.06935229  0.80496211    -0.04200
C734        C  0.43527607  0.06222162  0.83125716    -0.01300
C735        C  0.44639595  0.08591372  0.84969963     0.03700
C736        C  0.46100666  0.11698373  0.84180933    -0.04200
C737        C  0.45886240  0.12353576  0.81597047    -0.01300
C738        C  0.44604398  0.09961586  0.79772648     0.03700
C739        C  0.42038738  0.03043739  0.83954221     0.38300
C740        C  0.96862304  0.15469753  0.80843025     0.38300
C741        C  0.44051633  0.10585142  0.77193446     0.36800
C742        C  0.44244612  0.07833297  0.87673556     0.36800
N743        N  0.93537438  0.11093664  0.75161630    -0.38100
N744        N  0.43899177  0.07231243  0.89832004    -0.38100
N745        N  0.97600910  0.17947496  0.80241955    -0.37500
N746        N  0.40794153  0.00523703  0.84676618    -0.37500
C747        C  0.38330830  0.44213468  0.81100290    -0.04200
C748        C  0.40679666  0.44458864  0.82775762    -0.01300
C749        C  0.39894093  0.42289194  0.84757723     0.03700
C750        C  0.36781503  0.39779860  0.85062370    -0.04200
C751        C  0.34381716  0.39729053  0.83601036    -0.01300
C752        C  0.35148447  0.41922601  0.81628855     0.03700
C753        C  0.43913821  0.47012253  0.82548560     0.38300
C754        C  0.31114827  0.37354208  0.84042303     0.38300
C755        C  0.32638560  0.41734615  0.80111650     0.36800
C756        C  0.42292910  0.42682637  0.86531653     0.36800
N757        N  0.30624791  0.41575695  0.78911050    -0.38100
N758        N  0.44216490  0.43027523  0.87946654    -0.38100
N759        N  0.28487333  0.35494978  0.84354283    -0.37500
N760        N  0.46486000  0.49060553  0.82382858    -0.37500
C761        C  0.44464063  0.06761945  0.69595700    -0.04200
C762        C  0.43197390  0.06103142  0.67113036    -0.01300
C763        C  0.44791956  0.08230165  0.65091312     0.03700
C764        C  0.47455464  0.11199215  0.65594383    -0.04200
C765        C  0.48384166  0.11993625  0.68163299    -0.01300
C766        C  0.47129622  0.09707174  0.70088752     0.03700
C767        C  0.40345143  0.03171401  0.66605758     0.38300
C768        C  0.00537189  0.15182706  0.68854280     0.38300
C769        C  0.98671821  0.10380666  0.72546054     0.36800
C770        C  0.43752068  0.07274214  0.62493212     0.36800
N771        N  0.99955346  0.10920039  0.74482236    -0.38100
N772        N  0.42886769  0.06450944  0.60435814    -0.38100
N773        N  0.02207173  0.17729112  0.69432492    -0.37500
N774        N  0.38058071  0.00842238  0.66203804    -0.37500
C775        C  0.35700725  0.38928828  0.65978329    -0.04200
C776        C  0.34495017  0.38202963  0.68502094    -0.01300
C777        C  0.35735442  0.40486935  0.70427864     0.03700
C778        C  0.38222249  0.43522557  0.69861449    -0.04200
C779        C  0.39396663  0.44255545  0.67325988    -0.01300
C780        C  0.38030035  0.42010988  0.65375006     0.03700
C781        C  0.31869355  0.35137053  0.69092850     0.38300
C782        C  0.42022611  0.47317449  0.66719418     0.38300
C783        C  0.38873652  0.42919635  0.62724847     0.36800
C784        C  0.34522570  0.39667295  0.73019936     0.36800
N785        N  0.39493896  0.43674235  0.60607465    -0.38100
N786        N  0.33558857  0.38958324  0.75086060    -0.38100
N787        N  0.44151919  0.99743496  0.66236706    -0.37500
N788        N  0.29740575  0.32710346  0.69573037    -0.37500
C789        C  0.47427921  0.16718587  0.57771275    -0.04200
C790        C  0.45801724  0.14473382  0.55860900    -0.01300
C791        C  0.43619311  0.14632340  0.54268101     0.03700
C792        C  0.42898680  0.16942104  0.54657778    -0.04200
C793        C  0.44468881  0.19143890  0.56620318    -0.01300
C794        C  0.46702977  0.19020061  0.58169374     0.03700
C795        C  0.46178609  0.11844875  0.55662161     0.38300
C796        C  0.43656132  0.21444261  0.57161576     0.38300
C797        C  0.98037821  0.21101949  0.60318349     0.36800
C798        C  0.42151974  0.12427324  0.52213124     0.36800
N799        N  0.99016547  0.22749179  0.62049298    -0.38100
N800        N  0.41009601  0.10658881  0.50575567    -0.38100
N801        N  0.43000973  0.23271471  0.57592200    -0.37500
N802        N  0.46414251  0.09706587  0.55520579    -0.37500
C803        C  0.34644016  0.02640201  0.43325914    -0.04200
C804        C  0.37317397  0.05670720  0.43561913    -0.01300
C805        C  0.37014150  0.08020374  0.44716567     0.03700
C806        C  0.34128170  0.07271740  0.45892627    -0.04200
C807        C  0.31834818  0.04112853  0.46271563    -0.01300
C808        C  0.32310117  0.01823374  0.45234257     0.03700
C809        C  0.40429717  0.06275307  0.42924094     0.38300
C810        C  0.29100961  0.03191991  0.47890484     0.38300
C811        C  0.31455263  0.49200935  0.46864215     0.36800
C812        C  0.39634210  0.11180860  0.44588807     0.36800
N813        N  0.30818004  0.47185930  0.48255629    -0.38100
N814        N  0.41759517  0.13687282  0.44472256    -0.38100
N815        N  0.26911324  0.02461037  0.49169972    -0.37500
N816        N  0.42914248  0.06752049  0.42436551    -0.37500
C817        C  0.26610874  0.08846319  0.54054851    -0.04200
C818        C  0.23912674  0.09033968  0.54513087    -0.01300
C819        C  0.21693970  0.07180690  0.56402668     0.03700
C820        C  0.22347364  0.05460683  0.58117028    -0.04200
C821        C  0.25234991  0.05585138  0.57880822    -0.01300
C822        C  0.27258630  0.07099555  0.55763632     0.03700
C823        C  0.23513423  0.11299990  0.53179847     0.38300
C824        C  0.26243471  0.04340601  0.59875325     0.38300
C825        C  0.29951728  0.06783476  0.55327069     0.36800
C826        C  0.18710260  0.07025200  0.56553656     0.36800
N827        N  0.32084604  0.06508776  0.54968515    -0.38100
N828        N  0.16314817  0.06872196  0.56624354    -0.38100
N829        N  0.27190641  0.53474969  0.61465585    -0.37500
N830        N  0.23229188  0.13160194  0.52175324    -0.37500
C831        C  0.40509373  0.25659219  0.46021416    -0.04200
C832        C  0.40631681  0.28447673  0.45662592    -0.01300
C833        C  0.43033546  0.30776591  0.44133410     0.03700
C834        C  0.45104780  0.30201390  0.42696201    -0.04200
C835        C  0.44776866  0.27277161  0.42900522    -0.01300
C836        C  0.42591959  0.25079036  0.44655453     0.03700
C837        C  0.38227543  0.28886150  0.46796895     0.38300
C838        C  0.46447284  0.26381182  0.41181023     0.38300
C839        C  0.42384444  0.22150474  0.44992831     0.36800
C840        C  0.43342871  0.33766261  0.44047754     0.36800
N841        N  0.42195407  0.19807984  0.45282932    -0.38100
N842        N  0.43568969  0.36144296  0.44067715    -0.38100
N843        N  0.47643112  0.25492233  0.39823375    -0.37500
N844        N  0.36286652  0.29235525  0.47649287    -0.37500
C845        C  0.19967202  0.17270199  0.42022656    -0.04200
C846        C  0.23056000  0.19855064  0.42231552    -0.01300
C847        C  0.25341112  0.19674388  0.43689448     0.03700
C848        C  0.24541561  0.16922929  0.45013473    -0.04200
C849        C  0.21358655  0.14442762  0.44988918    -0.01300
C850        C  0.19130163  0.14584873  0.43456902     0.03700
C851        C  0.23972577  0.22628583  0.40784548     0.38300
C852        C  0.20342653  0.11661952  0.46475834     0.38300
C853        C  0.16006269  0.11849833  0.43221266     0.36800
C854        C  0.28571969  0.22242062  0.43634858     0.36800
N855        N  0.13534626  0.09653263  0.43034733    -0.38100
N856        N  0.31152007  0.24288919  0.43567856    -0.38100
N857        N  0.19478383  0.09413504  0.47627373    -0.37500
N858        N  0.24757784  0.24868861  0.39647428    -0.37500
C859        C  0.33224743  0.25513803  0.54731312    -0.04200
C860        C  0.30501605  0.24574138  0.56237290    -0.01300
C861        C  0.30375598  0.26678396  0.57949563     0.03700
C862        C  0.32874913  0.29802208  0.58027740    -0.04200
C863        C  0.35479100  0.30773801  0.56352513    -0.01300
C864        C  0.35691419  0.28641956  0.54776011     0.03700
C865        C  0.27956383  0.21372798  0.56202969     0.38300
C866        C  0.38114725  0.33931113  0.56393539     0.38300
C867        C  0.38589328  0.29652942  0.53345815     0.36800
C868        C  0.27854745  0.25511977  0.59827838     0.36800
N869        N  0.40940631  0.30487516  0.52267971    -0.38100
N870        N  0.25842094  0.24468949  0.61335250    -0.38100
N871        N  0.40279521  0.36416408  0.56366497    -0.37500
N872        N  0.25925998  0.18817740  0.56171323    -0.37500
C873        C  0.23643808  0.07396928  0.95989054    -0.04200
C874        C  0.24258420  0.05312134  0.94733692    -0.01300
C875        C  0.21990288  0.03074959  0.93083800     0.03700
C876        C  0.19010488  0.02755926  0.92874237    -0.04200
C877        C  0.18275966  0.04570384  0.94441817    -0.01300
C878        C  0.20622008  0.06968373  0.95903009     0.03700
C879        C  0.27326541  0.05661630  0.94948551     0.38300
C880        C  0.15172836  0.04157733  0.94388631     0.38300
C881        C  0.19981214  0.09131286  0.97167316     0.36800
C882        C  0.22891349  0.01393700  0.91407325     0.36800
N883        N  0.19472893  0.10876136  0.98132090    -0.38100
N884        N  0.23736905  0.00140482  0.90083787    -0.38100
N885        N  0.12708782  0.03854093  0.94402712    -0.37500
N886        N  0.29770152  0.05938902  0.95135244    -0.37500
C887        C  0.25080875  0.15351827  0.04443380    -0.04200
C888        C  0.26117798  0.18165984  0.05722690    -0.01300
C889        C  0.24136799  0.18430076  0.07528213     0.03700
C890        C  0.21001539  0.15971238  0.07898398    -0.04200
C891        C  0.19946225  0.13183835  0.06545302    -0.01300
C892        C  0.22019026  0.12834061  0.04923626     0.03700
C893        C  0.29259566  0.20773682  0.05212123     0.38300
C894        C  0.16709955  0.10655765  0.06821141     0.38300
C895        C  0.21032022  0.09850513  0.03817251     0.36800
C896        C  0.25403667  0.21160141  0.09099395     0.36800
N897        N  0.20250007  0.07448064  0.02984856    -0.38100
N898        N  0.26506321  0.23343806  0.10360816    -0.38100
N899        N  0.14116041  0.08653112  0.07005089    -0.37500
N900        N  0.31764894  0.22847266  0.04788678    -0.37500
C901        C  0.42605106  0.17830751  0.95957292    -0.04200
C902        C  0.45054395  0.17260517  0.96486125    -0.01300
C903        C  0.46833197  0.16999481  0.94483889     0.03700
C904        C  0.46506742  0.17679208  0.91934192    -0.04200
C905        C  0.44202032  0.18429547  0.91405342    -0.01300
C906        C  0.42232340  0.18447374  0.93380239     0.03700
C907        C  0.45849530  0.17012657  0.99100958     0.38300
C908        C  0.43803268  0.19126660  0.88798349     0.38300
C909        C  0.39761302  0.19008966  0.92713867     0.36800
C910        C  0.48790700  0.15751855  0.95046074     0.36800
N911        N  0.37789963  0.19454274  0.92174009    -0.38100
N912        N  0.50277000  0.14684451  0.95533865    -0.38100
N913        N  0.93486849  0.19683430  0.86719538    -0.37500
N914        N  0.46522133  0.16836521  0.01177174    -0.37500
C915        C  0.31969721  0.06331232  0.04605950    -0.04200
C916        C  0.33745727  0.05015457  0.03850394    -0.01300
C917        C  0.33960428  0.02938296  0.05473952     0.03700
C918        C  0.32012918  0.01748441  0.07665795    -0.04200
C919        C  0.29888098  0.02720947  0.08235308    -0.01300
C920        C  0.29909935  0.05055115  0.06745481     0.03700
C921        C  0.35429860  0.05848694  0.01417238     0.38300
C922        C  0.27872517  0.01514757  0.10484442     0.38300
C923        C  0.27959279  0.06258173  0.07522212     0.36800
C924        C  0.36515050  0.02410887  0.05061255     0.36800
N925        N  0.26401314  0.07215149  0.08147490    -0.38100
N926        N  0.38663211  0.52159559  0.04719224    -0.38100
N927        N  0.26268177  0.00578704  0.12283646    -0.37500
N928        N  0.36751984  0.06496122  0.99470265    -0.37500
C929        C  0.43246253  0.24963124  0.05238042    -0.04200
C930        C  0.44701043  0.27945144  0.04163356    -0.01300
C931        C  0.46144644  0.30537139  0.05755763     0.03700
C932        C  0.46659418  0.30207511  0.08347053    -0.04200
C933        C  0.45352227  0.27236966  0.09418274    -0.01300
C934        C  0.43555822  0.24619077  0.07892389     0.03700
C935        C  0.44816959  0.28355489  0.01412073     0.38300
C936        C  0.45703392  0.26864845  0.12123769     0.38300
C937        C  0.41908116  0.21600522  0.09106674     0.36800
C938        C  0.46708228  0.33454687  0.04803140     0.36800
N939        N  0.40590536  0.19204869  0.10089507    -0.38100
N940        N  0.97009918  0.35727853  0.04043680    -0.38100
N941        N  0.45947312  0.26556284  0.14283972    -0.37500
N942        N  0.44953157  0.28656908  0.99212464    -0.37500
C943        C  0.34734294  0.30012935  0.92085333    -0.04200
C944        C  0.32616680  0.26853383  0.91628456    -0.01300
C945        C  0.32588434  0.24608546  0.93225715     0.03700
C946        C  0.34639735  0.25496187  0.95336682    -0.02800
C947        C  0.36797697  0.28657544  0.95764803    -0.01300
C948        C  0.36962951  0.30889227  0.94058370     0.03700
C949        C  0.30616914  0.25898314  0.89403155     0.38300
C950        C  0.38697193  0.29643571  0.98044601     0.38300
C951        C  0.39570905  0.34052340  0.94223312     0.36800
C952        C  0.30494517  0.21366893  0.92641898     0.36800
N953        N  0.41687923  0.36561945  0.94339712    -0.38100
N954        N  0.28829368  0.18787303  0.92159745    -0.38100
N955        N  0.40161151  0.30482535  0.99893438    -0.37500
N956        N  0.29053122  0.25104076  0.87607606    -0.37500
O957        O  0.35514114  0.61127652  0.02589359    -0.79700
O958        O  0.36599445  0.72708512  0.97630586    -0.64400
O959        O  0.34997431  0.66311847  0.02409524    -1.11000
C960        C  0.26229114  0.60253849  0.97089148     1.07200
O961        O  0.31634136  0.71235685  0.98075612    -0.77600
O962        O  0.26937755  0.66204037  0.00213072    -0.65200
Ni963      Ni  0.38135079  0.65461232  0.03294304     1.34900
C964        C  0.27050487  0.65174018  0.02381283     0.85900
O965        O  0.39337886  0.72542883  0.02072844    -0.78200
O966        O  0.40935415  0.69715654  0.04136882    -0.88400
C967        C  0.34323736  0.73075098  0.97128479     0.85500
O968        O  0.40076980  0.66006508  0.00022957    -0.66600
O969        O  0.26729319  0.62779302  0.96138914    -0.85900
C970        C  0.40407891  0.67641139  0.98083395     0.86300
C971        C  0.41075324  0.72248545  0.03682684     1.07900
H972        H  0.33259407  0.65798731  0.96726992     0.39700
O973        O  0.32477964  0.66303698  0.98230241    -1.08600
O974        O  0.28760709  0.64057115  0.02844043    -0.65200
Ni975      Ni  0.31390002  0.63146563  0.00715211     1.26300
O976        O  0.38958771  0.69087238  0.97908516    -0.65500
O977        O  0.27790957  0.60064821  0.98912988    -0.77800
C978        C  0.32722973  0.59318743  0.03412819     0.85700
O979        O  0.30672559  0.60061422  0.03187898    -0.64900
Ni980      Ni  0.29280091  0.66995648  0.97119728     1.27400
Ni981      Ni  0.35978467  0.69537438  0.00036093     1.26100
H982        H  0.34336302  0.66803146  0.03990202     0.40200
O983        O  0.41087233  0.69688592  0.52304116    -0.79700
O984        O  0.29385060  0.68673955  0.47301739    -0.64400
O985        O  0.34768351  0.67853578  0.51965748    -1.11000
C986        C  0.33526219  0.59700226  0.46825743     1.07200
O987        O  0.26629755  0.63797950  0.45989977    -0.77600
O988        O  0.27338282  0.60581997  0.49765638    -0.65200
Ni989      Ni  0.38528489  0.71348048  0.53195022     1.34900
C990        C  0.28669569  0.60455731  0.51779915     0.85900
O991        O  0.31921708  0.71364321  0.51782363    -0.78200
O992        O  0.36287110  0.73299330  0.54172556    -0.88400
C993        C  0.27014652  0.66465088  0.46188232     0.85500
O994        O  0.39881844  0.73603660  0.50098543    -0.66600
O995        O  0.30818749  0.59285227  0.46450677    -0.85900
C996        C  0.38508966  0.73518590  0.48057025     0.86300
C997        C  0.33803609  0.73216753  0.53478388     1.07900
H998        H  0.33969813  0.66500060  0.46088212     0.39700
O999        O  0.32674451  0.65471134  0.47574358    -1.08600
O1000       O  0.31646378  0.61653884  0.51919727    -0.65200
Ni1001     Ni  0.35210723  0.64929411  0.50016351     1.26300
O1002       O  0.35587789  0.71686864  0.47676252    -0.65500
O1003       O  0.35665767  0.62054438  0.47976417    -0.77800
C1004       C  0.40498349  0.67084760  0.53075385     0.85700
O1005       O  0.37887834  0.64684763  0.52513984    -0.64900
Ni1006     Ni  0.28978361  0.61805453  0.46398280     1.27400
Ni1007     Ni  0.32188696  0.68392975  0.49628507     1.26100
H1008       H  0.33491275  0.66843968  0.53466625     0.40200
O1009       O  0.40265632  0.52996359  0.72338592    -0.73300
O1010       O  0.37361332  0.97093181  0.77904689    -0.73300
O1011       O  0.40046908  0.53273873  0.77535794    -0.73400
O1012       O  0.37397489  0.96730881  0.72684539    -0.73400
O1013       O  0.42172084  0.97373906  0.72652851    -0.73300
O1014       O  0.44698470  0.53668640  0.77835680    -0.73300
O1015       O  0.41998289  0.97468309  0.77857674    -0.73300
O1016       O  0.45019125  0.53624114  0.72642311    -0.73400
Ni1017     Ni  0.38595540  0.49998323  0.75102198     1.25400
Ni1018     Ni  0.43636337  0.50548936  0.75248776     1.25400
C1019       C  0.43166145  0.54334658  0.71624019     0.88900
C1020       C  0.39250973  0.96351506  0.78835887     0.88800
C1021       C  0.42772643  0.54502252  0.78525979     0.88900
C1022       C  0.39332029  0.95992676  0.71839989     0.89000
O1023       O  0.10316720  0.56520258  0.73102627    -0.73300
O1024       O  0.06117792  0.59201953  0.77669245    -0.73300
O1025       O  0.06610208  0.58911463  0.72512235    -0.73400
O1026       O  0.09852957  0.56832668  0.78272750    -0.73400
O1027       O  0.14156985  0.61547980  0.78231082    -0.73300
O1028       O  0.10841983  0.63622160  0.72492843    -0.73300
O1029       O  0.10373500  0.63925641  0.77682886    -0.73300
O1030       O  0.14555949  0.61273580  0.73040426    -0.73400
Ni1031     Ni  0.08078503  0.57701108  0.75395686     1.25400
Ni1032     Ni  0.12631102  0.62762899  0.75369309     1.25400
C1033       C  0.13096039  0.58469413  0.72271333     0.88900
C1034       C  0.07539868  0.62005722  0.78435453     0.88800
C1035       C  0.08205288  0.61609380  0.71512145     0.88900
C1036       C  0.12544174  0.58824219  0.79180125     0.89000
O1037       O  0.03293756  0.95520136  0.76947026    -0.73300
O1038       O  0.47113156  0.91600316  0.71771570    -0.73300
O1039       O  0.47012815  0.91721088  0.76937185    -0.73400
O1040       O  0.03407376  0.95418000  0.71799961    -0.73400
O1041       O  0.03788729  0.91266359  0.71751265    -0.73300
O1042       O  0.47698174  0.87731526  0.77170291    -0.73300
O1043       O  0.47492499  0.87427405  0.72000578    -0.73300
O1044       O  0.03991863  0.91532632  0.76929193    -0.73400
Ni1045     Ni  0.00184801  0.93708745  0.74355796     1.25400
Ni1046     Ni  0.00767648  0.89343169  0.74465247     1.25400
C1047       C  0.04637588  0.94150091  0.77800761     0.88900
C1048       C  0.46274212  0.88871772  0.71052698     0.88800
C1049       C  0.46352812  0.89155225  0.77933742     0.88900
C1050       C  0.04630187  0.93945594  0.70885931     0.89000
C1051       C  0.02701862  0.67645767  0.59382611     0.03400
C1052       C  0.49396789  0.66276460  0.59649610     0.03400
C1053       C  0.47801073  0.64251551  0.61704280    -0.17100
C1054       C  0.49347600  0.63410309  0.63447747     0.03400
C1055       C  0.02644362  0.64664256  0.63110895     0.03400
C1056       C  0.04244384  0.66739755  0.61074312    -0.17100
H1057       H  0.06745488  0.67694654  0.60810702     0.05500
H1058       H  0.45295546  0.63299396  0.61936102     0.05500
C1059       C  0.19973011  0.53585843  0.60140577     0.03400
C1060       C  0.17649704  0.00462302  0.59696216     0.03400
C1061       C  0.15092196  0.98945894  0.61367685    -0.17100
C1062       C  0.14811043  0.00405151  0.63526123     0.03400
C1063       C  0.17131661  0.53525968  0.64051918     0.03400
C1064       C  0.19699080  0.55079334  0.62324978    -0.17100
H1065       H  0.21450861  0.57486958  0.62637997     0.05500
H1066       H  0.13312257  0.96552191  0.61010518     0.05500
C1067       C  0.33412322  0.83998976  0.90599188     0.03400
C1068       C  0.34973208  0.82367706  0.90248095     0.03400
C1069       C  0.36870658  0.82974853  0.88075063    -0.17100
C1070       C  0.37468984  0.85325096  0.86340480     0.03400
C1071       C  0.36099010  0.87132175  0.86788062     0.03400
C1072       C  0.34071386  0.86417156  0.88904062    -0.17100
H1073       H  0.32929280  0.87710922  0.89208078     0.05500
H1074       H  0.37919583  0.81600560  0.87742449     0.05500
C1075       C  0.33178672  0.81889057  0.60191611     0.03400
C1076       C  0.31539327  0.83474645  0.60366724     0.03400
C1077       C  0.32334359  0.85705968  0.62297979    -0.17100
C1078       C  0.34746117  0.86419671  0.64033659     0.03400
C1079       C  0.36309159  0.84782924  0.63878057     0.03400
C1080       C  0.35482890  0.82521879  0.62011795    -0.17100
H1081       H  0.36764546  0.81340654  0.61898820     0.05500
H1082       H  0.31130825  0.86962295  0.62397966     0.05500
C1083       C  0.17006635  0.51245587  0.90612197     0.03400
C1084       C  0.15200193  0.98007865  0.90218301     0.03400
C1085       C  0.13189520  0.96891759  0.88100845    -0.17100
C1086       C  0.13008187  0.98905094  0.86379392     0.03400
C1087       C  0.14870779  0.52118403  0.86740395     0.03400
C1088       C  0.16857217  0.53241810  0.88836348    -0.17100
H1089       H  0.18267010  0.55715709  0.89121764     0.05500
H1090       H  0.11768101  0.94428423  0.87773542     0.05500
C1091       C  0.48321722  0.67294528  0.89782109     0.03400
C1092       C  0.01679573  0.69045062  0.89548713     0.03400
C1093       C  0.03108589  0.68414617  0.87476943    -0.17100
C1094       C  0.01360883  0.65971307  0.85778575     0.03400
C1095       C  0.48042810  0.64263236  0.86002521     0.03400
C1096       C  0.46575868  0.64962112  0.87970920    -0.17100
H1097       H  0.44033202  0.63602706  0.88139348     0.05500
H1098       H  0.05648541  0.69729549  0.87274245     0.05500
O1099       O  0.23304283  0.86619164  0.53843611    -0.79700
O1100       O  0.12334031  0.86419055  0.47409930    -0.64400
O1101       O  0.17496874  0.85484979  0.52272475    -1.11000
C1102       C  0.15756979  0.77497565  0.46407697     1.07200
O1103       O  0.08973514  0.81440903  0.47905298    -0.77600
O1104       O  0.09817607  0.77031098  0.49774003    -0.65200
Ni1105     Ni  0.21535783  0.89032460  0.52921397     1.34900
C1106       C  0.11002343  0.77147391  0.51934526     0.85900
O1107       O  0.15118138  0.89343650  0.51854338    -0.78200
O1108       O  0.20283192  0.91930598  0.52176297    -0.88400
C1109       C  0.09637986  0.84029676  0.47017284     0.85500
O1110       O  0.22733986  0.89136536  0.49470106    -0.66600
O1111       O  0.13431253  0.77629940  0.45584173    -0.85900
C1112       C  0.21540289  0.89753760  0.47606740     0.86300
C1113       C  0.17656446  0.91645784  0.52670537     1.07900
H1114       H  0.16431579  0.83791574  0.46505797     0.39700
O1115       O  0.15113462  0.82928857  0.48006011    -1.08600
O1116       O  0.13851980  0.79163173  0.52462046    -0.65200
Ni1117     Ni  0.17448873  0.82173538  0.50415249     1.26300
O1118       O  0.18694298  0.89149525  0.47691475    -0.65500
O1119       O  0.17366370  0.78955261  0.48372309    -0.77800
C1120       C  0.22502393  0.83803014  0.53872268     0.85700
O1121       O  0.20015867  0.81670405  0.52827195    -0.64900
Ni1122     Ni  0.11268704  0.79586176  0.46792117     1.27400
Ni1123     Ni  0.15068091  0.86155056  0.49828887     1.26100
H1124       H  0.16322958  0.84737026  0.53875331     0.40200
O1125       O  0.19159963  0.89851078  0.96877408    -0.79700
O1126       O  0.18793523  0.79134361  0.02880516    -0.64400
O1127       O  0.17602936  0.83721560  0.97676414    -1.11000
C1128       C  0.09017134  0.81712753  0.02958769     1.07200
O1129       O  0.13790271  0.75383503  0.02659676    -0.77600
O1130       O  0.10053454  0.76114211  0.99395505    -0.65200
Ni1131     Ni  0.21070543  0.87451536  0.96304641     1.34900
C1132       C  0.09854176  0.77540184  0.97491726     0.85900
O1133       O  0.21808193  0.81647311  0.98472067    -0.78200
O1134       O  0.23249785  0.85369585  0.95518636    -0.88400
C1135       C  0.16603144  0.76368588  0.03353061     0.85500
O1136       O  0.23364900  0.89113979  0.99394020    -0.66600
O1137       O  0.08714630  0.79071356  0.03191439    -0.85900
C1138       C  0.23123683  0.88058412  0.01637422     0.86300
C1139       C  0.23424858  0.83193359  0.96532830     1.07900
H1140       H  0.15618437  0.82552537  0.03532409     0.39700
O1141       O  0.14915703  0.81407398  0.01957451    -1.08600
O1142       O  0.11171352  0.80466479  0.97442395    -0.65200
Ni1143     Ni  0.14328574  0.83845630  0.99513694     1.26300
O1144       O  0.21235712  0.85221979  0.02221419    -0.65500
O1145       O  0.11149051  0.83870351  0.01567292    -0.77800
C1146       C  0.16368703  0.89075325  0.96334453     0.85700
O1147       O  0.14030434  0.86494717  0.97057691    -0.64900
Ni1148     Ni  0.11415067  0.77425078  0.02804417     1.27400
Ni1149     Ni  0.18378025  0.81543204  0.00269229     1.26100
H1150       H  0.16687185  0.82338083  0.96245782     0.40200
O1151       O  0.46270066  0.58845562  0.22027027    -0.73300
O1152       O  0.02812138  0.62572163  0.27038768    -0.73300
O1153       O  0.02664615  0.62252026  0.21812769    -0.73400
O1154       O  0.46419688  0.59027742  0.27288341    -0.73400
O1155       O  0.46548214  0.54732279  0.27273523    -0.73300
O1156       O  0.02898019  0.58020504  0.22062855    -0.73300
O1157       O  0.02933442  0.58264495  0.27254735    -0.73300
O1158       O  0.46512350  0.54598091  0.22055639    -0.73400
Ni1159     Ni  0.49529861  0.60825277  0.24536095     1.25400
Ni1160     Ni  0.49726350  0.56255048  0.24664852     1.25400
C1161       C  0.45350527  0.56144720  0.21178625     0.88900
C1162       C  0.03928288  0.61034760  0.27993513     0.88800
C1163       C  0.03809742  0.60636496  0.21032838     0.88900
C1164       C  0.45495607  0.56341005  0.28219936     0.89000
O1165       O  0.39457911  0.93366340  0.27522523    -0.73300
O1166       O  0.43672468  0.90989835  0.22761191    -0.73300
O1167       O  0.40205491  0.93597159  0.22413078    -0.73400
O1168       O  0.42950570  0.90749254  0.27893925    -0.73400
O1169       O  0.38645109  0.86052022  0.27558674    -0.73300
O1170       O  0.35819480  0.88961128  0.22125010    -0.73300
O1171       O  0.39291004  0.86355635  0.22390514    -0.73300
O1172       O  0.35121914  0.88679742  0.27294205    -0.73400
Ni1173     Ni  0.41723806  0.92337960  0.25163565     1.25400
Ni1174     Ni  0.37057379  0.87339551  0.24836457     1.25400
C1175       C  0.36615178  0.91420170  0.28201273     0.88900
C1176       C  0.42146871  0.88313590  0.21745672     0.88800
C1177       C  0.37591051  0.91741889  0.21341722     0.88900
C1178       C  0.41263760  0.87940347  0.28620740     0.89000
C1179       C  0.31792457  0.97466116  0.40586620     0.03400
C1180       C  0.34211542  0.50657051  0.40947253     0.03400
C1181       C  0.36246398  0.52144503  0.38800497    -0.17100
C1182       C  0.36328882  0.50556298  0.36627135     0.03400
C1183       C  0.34140319  0.97359351  0.36443400     0.03400
C1184       C  0.31851086  0.95912603  0.38366306    -0.17100
H1185       H  0.30071505  0.93492125  0.38133136     0.05500
H1186       H  0.37823599  0.54611708  0.38758013     0.05500
O1187       O  0.08771517  0.96586338  0.27877712    -0.73300
O1188       O  0.13426415  0.53353351  0.23235115    -0.73300
O1189       O  0.12636534  0.52793610  0.28397544    -0.73400
O1190       O  0.09645135  0.97241339  0.22733785    -0.73400
O1191       O  0.05520721  0.97763812  0.22446061    -0.73300
O1192       O  0.08447540  0.53263978  0.28144822    -0.73300
O1193       O  0.09286849  0.53909758  0.22997691    -0.73300
O1194       O  0.04622496  0.97095971  0.27544130    -0.73400
Ni1195     Ni  0.11265076  0.99969597  0.25584680     1.25400
Ni1196     Ni  0.06822920  0.00527598  0.25278816     1.25400
C1197       C  0.05923066  0.95718295  0.28468808     0.88900
C1198       C  0.12075632  0.54686176  0.22307054     0.88800
C1199       C  0.11063242  0.53984633  0.29174062     0.88900
C1200       C  0.07130847  0.96643074  0.21597149     0.89000
C1201       C  0.31338921  0.96744845  0.09432051     0.03400
C1202       C  0.32631476  0.49980158  0.09591207     0.03400
C1203       C  0.34768565  0.51686734  0.11561412    -0.17100
C1204       C  0.35656920  0.50257519  0.13372872     0.03400
C1205       C  0.34308693  0.97032722  0.13205157     0.03400
C1206       C  0.32193038  0.95332881  0.11263104    -0.17100
H1207       H  0.31225106  0.92867695  0.11158782     0.05500
H1208       H  0.35797043  0.54160214  0.11650474     0.05500
C1209       C  0.17831519  0.67042110  0.39913746     0.03400
C1210       C  0.16161813  0.68608078  0.39842911     0.03400
C1211       C  0.13982455  0.67911980  0.37852532    -0.17100
C1212       C  0.13418566  0.65716797  0.35960951     0.03400
C1213       C  0.15103545  0.64196536  0.36058388     0.03400
C1214       C  0.17323293  0.64932615  0.37965286    -0.17100
H1215       H  0.18548596  0.63694086  0.38020601     0.05500
H1216       H  0.12688097  0.69079245  0.37788076     0.05500
C1217       C  0.17139989  0.67395258  0.09800449     0.03400
C1218       C  0.18971036  0.66013795  0.10010557     0.03400
C1219       C  0.18563803  0.64204268  0.12181356    -0.17100
C1220       C  0.16160109  0.63430827  0.13997119     0.03400
C1221       C  0.14121046  0.64567483  0.13644676     0.03400
C1222       C  0.14699800  0.66582161  0.11590816    -0.17100
H1223       H  0.13196748  0.67511026  0.11358409     0.05500
H1224       H  0.20081277  0.63291531  0.12401759     0.05500
C1225       C  0.47031488  0.82390767  0.40601829     0.03400
C1226       C  0.00381056  0.84101606  0.40458232     0.03400
C1227       C  0.01890084  0.86243219  0.38452045    -0.17100
C1228       C  0.00166307  0.86701004  0.36607224     0.03400
C1229       C  0.46852153  0.84964009  0.36744839     0.03400
C1230       C  0.45334271  0.82813164  0.38695392    -0.17100
H1231       H  0.42782529  0.81481099  0.38753835     0.05500
H1232       H  0.04437939  0.87586746  0.38336464     0.05500
C1233       C  0.48506895  0.82972690  0.09956079     0.03400
C1234       C  0.01773359  0.84986242  0.09576335     0.03400
C1235       C  0.03417667  0.87556558  0.11158008    -0.17100
C1236       C  0.01892198  0.88055407  0.13202359     0.03400
C1237       C  0.48616475  0.85974621  0.13619296     0.03400
C1238       C  0.46971184  0.83490586  0.11959169    -0.17100
H1239       H  0.44471427  0.81894505  0.12262917     0.05500
H1240       H  0.05928519  0.89095312  0.10869146     0.05500
C1241       C  0.04182401  0.93196929  0.30366070    -0.04200
C1242       C  0.04525199  0.90611555  0.30397099    -0.01300
C1243       C  0.03251151  0.88482547  0.32446883     0.03700
C1244       C  0.01829519  0.89049537  0.34552955    -0.04200
C1245       C  0.01685903  0.91735036  0.34567447    -0.01300
C1246       C  0.02455192  0.93542080  0.32351604     0.03700
C1247       C  0.05989033  0.90025667  0.28239829     0.38300
C1248       C  0.01112998  0.92846889  0.36936373     0.38300
C1249       C  0.01306816  0.95615178  0.32086472     0.36800
C1250       C  0.03483378  0.85766879  0.32402989     0.36800
N1251       N  0.00319273  0.47209794  0.31845613    -0.38100
N1252       N  0.03715014  0.83624868  0.32315666    -0.38100
N1253       N  0.00794357  0.93828290  0.38835744    -0.37500
N1254       N  0.07133006  0.89542550  0.26510474    -0.37500
C1255       C  0.06098429  0.94681319  0.19237517    -0.04200
C1256       C  0.03976093  0.94792213  0.17509859    -0.01300
C1257       C  0.02947666  0.92904040  0.15332265     0.03700
C1258       C  0.03763561  0.90675326  0.14970777    -0.04200
C1259       C  0.06098976  0.90740626  0.16514077    -0.01300
C1260       C  0.07285744  0.92748311  0.18625406     0.03700
C1261       C  0.02756995  0.96783378  0.17957971     0.38300
C1262       C  0.07187915  0.88642855  0.16007682     0.38300
C1263       C  0.09650316  0.92704598  0.20184342     0.36800
C1264       C  0.51057676  0.93264623  0.13438009     0.36800
N1265       N  0.11554584  0.92667240  0.21398802    -0.38100
N1266       N  0.49587845  0.93592525  0.11919531    -0.38100
N1267       N  0.08075354  0.86986907  0.15609473    -0.37500
N1268       N  0.51731734  0.98324432  0.18340637    -0.37500
C1269       C  0.12362134  0.56384757  0.31182553    -0.04200
C1270       C  0.10545853  0.56105700  0.33364025    -0.01300
C1271       C  0.11465694  0.58656620  0.34962530     0.03700
C1272       C  0.14252901  0.61486601  0.34422664    -0.04200
C1273       C  0.16299234  0.61638048  0.32464970    -0.01300
C1274       C  0.15348560  0.59092008  0.30836426     0.03700
C1275       C  0.07955098  0.53126438  0.34164368     0.38300
C1276       C  0.19387045  0.64390874  0.32144466     0.38300
C1277       C  0.17443541  0.59261295  0.28811265     0.36800
C1278       C  0.09630070  0.58313706  0.37248957     0.36800
N1279       N  0.19119145  0.59379426  0.27206422    -0.38100
N1280       N  0.08165847  0.57997344  0.39080178    -0.38100
N1281       N  0.21865600  0.66573887  0.31898850    -0.37500
N1282       N  0.05976180  0.00803735  0.34998407    -0.37500
C1283       C  0.13676207  0.57062005  0.20297646    -0.04200
C1284       C  0.14551081  0.60129752  0.20765759    -0.01300
C1285       C  0.15688400  0.62295340  0.18747622     0.03700
C1286       C  0.15733819  0.61350601  0.16207269    -0.04200
C1287       C  0.15181022  0.58345188  0.15804433    -0.01300
C1288       C  0.14146586  0.56212952  0.17845877     0.03700
C1289       C  0.14299831  0.61050126  0.23336564     0.38300
C1290       C  0.15649992  0.57382868  0.13316967     0.38300
C1291       C  0.13435897  0.53095767  0.17393529     0.36800
C1292       C  0.16961979  0.65521389  0.19311067     0.36800
N1293       N  0.12889241  0.50622903  0.17015669    -0.38100
N1294       N  0.18029347  0.68096659  0.19799884    -0.38100
N1295       N  0.16070109  0.56518783  0.11394911    -0.37500
N1296       N  0.14097409  0.61754831  0.25400029    -0.37500
C1297       C  0.42359687  0.86906331  0.30768624    -0.04200
C1298       C  0.42952820  0.84501864  0.30448331    -0.01300
C1299       C  0.44343987  0.83788538  0.32442027     0.03700
C1300       C  0.44930012  0.85326849  0.34803072    -0.04200
C1301       C  0.43934758  0.87424002  0.35213404    -0.01300
C1302       C  0.42911267  0.88405675  0.33145255     0.03700
C1303       C  0.42311114  0.82893180  0.28029509     0.38300
C1304       C  0.93946327  0.88592940  0.37741051     0.38300
C1305       C  0.42568714  0.91052089  0.33448664     0.36800
C1306       C  0.45177249  0.81479228  0.32076791     0.36800
N1307       N  0.92370458  0.93203798  0.33693510    -0.38100
N1308       N  0.45840623  0.79633084  0.31800980    -0.38100
N1309       N  0.93883058  0.89595118  0.39711855    -0.37500
N1310       N  0.41801240  0.81604608  0.26101546    -0.37500
C1311       C  0.43678939  0.87524300  0.19711053    -0.04200
C1312       C  0.42653037  0.87227013  0.17164620    -0.01300
C1313       C  0.44294961  0.86773972  0.15176529     0.03700
C1314       C  0.46814578  0.86355308  0.15744288    -0.04200
C1315       C  0.47601382  0.86321733  0.18328887    -0.01300
C1316       C  0.46208902  0.87142866  0.20280344     0.03700
C1317       C  0.39960002  0.87472751  0.16568815     0.38300
C1318       C  0.99689828  0.85263906  0.19003719     0.38300
C1319       C  0.47419042  0.87643565  0.22859558     0.36800
C1320       C  0.43428033  0.86810677  0.12541098     0.36800
N1321       N  0.98437826  0.88102490  0.24901228    -0.38100
N1322       N  0.42750149  0.86845422  0.10437596    -0.38100
N1323       N  0.01301250  0.84362739  0.19572536    -0.37500
N1324       N  0.37797740  0.87631325  0.16064527    -0.37500
C1325       C  0.34208931  0.95450324  0.34277931    -0.04200
C1326       C  0.34750728  0.93028302  0.34759611    -0.01300
C1327       C  0.34996403  0.91354334  0.32719657     0.03700
C1328       C  0.35155737  0.92355198  0.30194434    -0.04200
C1329       C  0.34374400  0.94586769  0.29681855    -0.01300
C1330       C  0.33730934  0.96010441  0.31722248     0.03700
C1331       C  0.35325753  0.92381882  0.37315842     0.38300
C1332       C  0.34114719  0.95310249  0.27054631     0.38300
C1333       C  0.32449257  0.97925755  0.31193423     0.36800
C1334       C  0.35125051  0.88620017  0.33215775     0.36800
N1335       N  0.31354979  0.99389239  0.30746271    -0.38100
N1336       N  0.35170187  0.86408536  0.33610627    -0.38100
N1337       N  0.33868846  0.95839553  0.24950118    -0.37500
N1338       N  0.35900858  0.91816774  0.39298256    -0.37500
C1339       C  0.36652917  0.92841793  0.19128459    -0.04200
C1340       C  0.38902546  0.94609047  0.17205291    -0.01300
C1341       C  0.38060401  0.95782327  0.15150037     0.03700
C1342       C  0.35037176  0.95353203  0.15092762    -0.04200
C1343       C  0.32727036  0.93412611  0.16904196    -0.01300
C1344       C  0.33528655  0.92144506  0.18917777     0.03700
C1345       C  0.42068012  0.95168417  0.17295763     0.38300
C1346       C  0.29541427  0.92781148  0.16733713     0.38300
C1347       C  0.31164924  0.90244374  0.20826550     0.36800
C1348       C  0.40266199  0.97326587  0.13051493     0.36800
N1349       N  0.29274629  0.88728883  0.22344671    -0.38100
N1350       N  0.42043990  0.98508857  0.11380342    -0.38100
N1351       N  0.27001293  0.92275858  0.16601384    -0.37500
N1352       N  0.44591252  0.95618223  0.17362239    -0.37500
C1353       C  0.43245851  0.55047195  0.30471370    -0.04200
C1354       C  0.40882803  0.55760441  0.30888608    -0.01300
C1355       C  0.38745570  0.54440259  0.32980922     0.03700
C1356       C  0.38832254  0.52274786  0.34611605    -0.04200
C1357       C  0.41312863  0.51733224  0.34316929    -0.01300
C1358       C  0.43488974  0.53084475  0.32266202     0.03700
C1359       C  0.40546431  0.57754584  0.29120521     0.38300
C1360       C  0.41743072  0.99923335  0.36222827     0.38300
C1361       C  0.46074347  0.02553005  0.32104495     0.36800
C1362       C  0.36453030  0.55319377  0.33462842     0.36800
N1363       N  0.48147722  0.02147956  0.31996143    -0.38100
N1364       N  0.34637673  0.56034058  0.33867251    -0.38100
N1365       N  0.42139779  0.98528057  0.37753785    -0.37500
N1366       N  0.40254364  0.59326616  0.27702717    -0.37500
C1367       C  0.42867814  0.54795224  0.19170472    -0.04200
C1368       C  0.43677826  0.55350296  0.16544453    -0.01300
C1369       C  0.41311347  0.54050561  0.14654618     0.03700
C1370       C  0.38102761  0.52138216  0.15364561    -0.04200
C1371       C  0.37288787  0.51821422  0.17996976    -0.01300
C1372       C  0.39656939  0.53120795  0.19882652     0.03700
C1373       C  0.46948224  0.57296119  0.15778518     0.38300
C1374       C  0.34010793  0.00275526  0.18767207     0.38300
C1375       C  0.38802163  0.02808758  0.22569837     0.36800
C1376       C  0.42188420  0.54651048  0.11971272     0.36800
N1377       N  0.38160486  0.02608619  0.24721924    -0.38100
N1378       N  0.42889724  0.55129862  0.09829821    -0.38100
N1379       N  0.31402129  0.99087364  0.19405106    -0.37500
N1380       N  0.49545453  0.58871228  0.15137534    -0.37500
C1381       C  0.10989445  0.64922567  0.33929698    -0.04200
C1382       C  0.11889623  0.65568211  0.31321937    -0.01300
C1383       C  0.09589501  0.64349291  0.29381054     0.03700
C1384       C  0.06364454  0.62478668  0.30025664    -0.04200
C1385       C  0.05457224  0.62145010  0.32630083    -0.01300
C1386       C  0.07751959  0.63367690  0.34571062     0.03700
C1387       C  0.15172369  0.67637530  0.30645674     0.38300
C1388       C  0.02158166  0.60660337  0.33318436     0.38300
C1389       C  0.06771303  0.63054678  0.37228862     0.36800
C1390       C  0.10538010  0.65118714  0.26726612     0.36800
N1391       N  0.05986268  0.62831387  0.39348486    -0.38100
N1392       N  0.11329513  0.65776790  0.24617465    -0.38100
N1393       N  0.99540676  0.59545167  0.33902166    -0.37500
N1394       N  0.17781747  0.69335532  0.30097827    -0.37500
C1395       C  0.11309563  0.63624027  0.15357181    -0.04200
C1396       C  0.11048316  0.65837408  0.16806574    -0.01300
C1397       C  0.08523143  0.64905466  0.18563373     0.03700
C1398       C  0.06235476  0.61738935  0.18917423    -0.04200
C1399       C  0.06342153  0.59567352  0.17276834    -0.01300
C1400       C  0.08841979  0.60505019  0.15505692     0.03700
C1401       C  0.13417855  0.69087184  0.16542233     0.38300
C1402       C  0.03769601  0.56375323  0.17289729     0.38300
C1403       C  0.08793633  0.58262107  0.13758079     0.36800
C1404       C  0.08333789  0.67228326  0.20023642     0.36800
N1405       N  0.08713866  0.56452523  0.12366514    -0.38100
N1406       N  0.08187389  0.69093742  0.21175277    -0.38100
N1407       N  0.51673953  0.53851443  0.17285659    -0.37500
N1408       N  0.15294287  0.71684960  0.16340010    -0.37500
C1409       C  0.17276582  0.74191498  0.04743018    -0.04200
C1410       C  0.19046570  0.75120592  0.07019746    -0.01300
C1411       C  0.19169964  0.72922348  0.08592314     0.03700
C1412       C  0.17689160  0.69790950  0.07846680    -0.04200
C1413       C  0.16119806  0.68909730  0.05486743    -0.01300
C1414       C  0.15867379  0.71070881  0.03970081     0.03700
C1415       C  0.20531577  0.78294203  0.07865544     0.38300
C1416       C  0.14544937  0.65720458  0.04682541     0.38300
C1417       C  0.14025542  0.70000786  0.01659620     0.36800
C1418       C  0.20604986  0.73843905  0.11089698     0.36800
N1419       N  0.12491164  0.69026325  0.99857016    -0.38100
N1420       N  0.21729556  0.74586288  0.13088468    -0.38100
N1421       N  0.13239987  0.63203213  0.03962185    -0.37500
N1422       N  0.21716118  0.80827562  0.08534730    -0.37500
C1423       C  0.06900926  0.82347940  0.04539832    -0.04200
C1424       C  0.06045028  0.84447226  0.03690040    -0.01300
C1425       C  0.04552156  0.85464846  0.05381253     0.03700
C1426       C  0.03584230  0.84144307  0.07836944    -0.04200
C1427       C  0.04360128  0.82003200  0.08681261    -0.01300
C1428       C  0.06024535  0.81121721  0.07061525     0.03700
C1429       C  0.06568613  0.85473038  0.01049431     0.38300
C1430       C  0.03653034  0.80879238  0.11300827     0.38300
C1431       C  0.06938852  0.79052416  0.08072722     0.36800
C1432       C  0.04198499  0.88009011  0.04651030     0.36800
N1433       N  0.07650833  0.77398221  0.08894890    -0.38100
N1434       N  0.03985889  0.90086009  0.04079703    -0.38100
N1435       N  0.03146010  0.80014226  0.13396948    -0.37500
N1436       N  0.06926394  0.86268603  0.98936491    -0.37500
C1437       C  0.29205269  0.94716992  0.07348780    -0.04200
C1438       C  0.25901369  0.93008690  0.07715069    -0.01300
C1439       C  0.23911690  0.90784200  0.05890280     0.03700
C1440       C  0.25196769  0.90293444  0.03642749    -0.04200
C1441       C  0.28499815  0.92026273  0.03279372    -0.01300
C1442       C  0.30479691  0.94027355  0.05208652     0.03700
C1443       C  0.24558863  0.93358099  0.10068488     0.38300
C1444       C  0.29896889  0.91750848  0.00925925     0.38300
C1445       C  0.33785063  0.95029827  0.05148407     0.36800
C1446       C  0.20533646  0.89063665  0.06301997     0.36800
N1447       N  0.36385299  0.95693739  0.05135504    -0.38100
N1448       N  0.17840274  0.87707773  0.06646854    -0.38100
N1449       N  0.31039667  0.91605245  0.99035743    -0.37500
N1450       N  0.23466853  0.93578949  0.11959185    -0.37500
C1451       C  0.16656928  0.71066090  0.41707024    -0.04200
C1452       C  0.15748848  0.70381625  0.44316051    -0.01300
C1453       C  0.15865667  0.72657486  0.45949097     0.03700
C1454       C  0.16577960  0.75515723  0.44940813    -0.04200
C1455       C  0.17565510  0.76246071  0.42366452    -0.01300
C1456       C  0.17672834  0.74063481  0.40773448     0.03700
C1457       C  0.14324653  0.67265738  0.45280799     0.38300
C1458       C  0.18388897  0.79227259  0.41337159     0.38300
C1459       C  0.18681656  0.74859117  0.38124634     0.36800
C1460       C  0.15080343  0.72004792  0.48645432     0.36800
N1461       N  0.19472258  0.75476730  0.36009816    -0.38100
N1462       N  0.14490190  0.71515329  0.50803491    -0.38100
N1463       N  0.19033217  0.81600122  0.40517595    -0.37500
N1464       N  0.13094270  0.64805021  0.46136039    -0.37500
C1465       C  0.02466385  0.83771934  0.42290174    -0.04200
C1466       C  0.03044790  0.85115438  0.44750213    -0.01300
C1467       C  0.05453170  0.85290014  0.46282763     0.03700
C1468       C  0.07288209  0.84115819  0.45372724    -0.04200
C1469       C  0.06674971  0.82717684  0.42944900    -0.01300
C1470       C  0.04319529  0.82591418  0.41396978     0.03700
C1471       C  0.51268357  0.86441426  0.45679416     0.38300
C1472       C  0.08504345  0.81430323  0.42022782     0.38300
C1473       C  0.03844992  0.81270862  0.38860835     0.36800
C1474       C  0.06022619  0.86644842  0.48809947     0.36800
N1475       N  0.03477640  0.80171005  0.36857919    -0.38100
N1476       N  0.06470779  0.87720978  0.50828941    -0.38100
N1477       N  0.09955394  0.80396234  0.41294479    -0.37500
N1478       N  0.49900100  0.87531359  0.46475701    -0.37500
C1479       C  0.29062676  0.95515917  0.42346766    -0.04200
C1480       C  0.26506851  0.95975959  0.42603668    -0.01300
C1481       C  0.23937593  0.94051528  0.44262270     0.03700
C1482       C  0.23708015  0.91414660  0.45396549    -0.04200
C1483       C  0.26028848  0.90715907  0.44785308    -0.01300
C1484       C  0.28812102  0.92892274  0.43509048     0.03700
C1485       C  0.26612564  0.98527408  0.41282767     0.38300
C1486       C  0.25542028  0.87728843  0.45456749     0.38300
C1487       C  0.31547068  0.92621433  0.43709615     0.36800
C1488       C  0.21650842  0.94889641  0.44901476     0.36800
N1489       N  0.33718325  0.92419082  0.44041974    -0.38100
N1490       N  0.19839701  0.95574060  0.45429883    -0.38100
N1491       N  0.25108399  0.85319717  0.45946055    -0.37500
N1492       N  0.26715771  0.50578919  0.40236943    -0.37500
C1493       C  0.03826728  0.71350216  0.91520070    -0.04200
C1494       C  0.03752153  0.74028852  0.92117681    -0.01300
C1495       C  0.05736505  0.76097598  0.94035681     0.03700
C1496       C  0.07977739  0.75635370  0.95252289    -0.04200
C1497       C  0.08302374  0.73175256  0.94424606    -0.01300
C1498       C  0.06152942  0.70964742  0.92692576     0.03700
C1499       C  0.01763453  0.74762385  0.90679953     0.38300
C1500       C  0.11027141  0.73069380  0.95190351     0.38300
C1501       C  0.06318313  0.68249757  0.92172080     0.36800
C1502       C  0.05455807  0.78694041  0.94752695     0.36800
N1503       N  0.06437376  0.66077277  0.91769047    -0.38100
N1504       N  0.05232506  0.80771098  0.95312984    -0.38100
N1505       N  0.13268341  0.73070699  0.95729608    -0.37500
N1506       N  0.00231496  0.75420741  0.89530138    -0.37500
C1507       C  0.15475680  0.95724762  0.91840877    -0.04200
C1508       C  0.14371341  0.95096885  0.94406578    -0.01300
C1509       C  0.14665352  0.92935234  0.95889356     0.03700
C1510       C  0.15909960  0.91260843  0.94788457    -0.04200
C1511       C  0.16900619  0.91793969  0.92203300    -0.01300
C1512       C  0.16690083  0.94005758  0.90741565     0.03700
C1513       C  0.12751812  0.96511130  0.95493256     0.38300
C1514       C  0.18120890  0.90035340  0.91032489     0.38300
C1515       C  0.17765677  0.94524634  0.88098325     0.36800
C1516       C  0.13788952  0.92510697  0.98576097     0.36800
N1517       N  0.18654375  0.94934759  0.85999551    -0.38100
N1518       N  0.13121988  0.92197571  0.00727809    -0.38100
N1519       N  0.19085618  0.88628312  0.90096754    -0.37500
N1520       N  0.11386016  0.97543854  0.96408869    -0.37500
C1521       C  0.29142008  0.83062176  0.58475540    -0.04200
C1522       C  0.30114914  0.84767121  0.56173407    -0.01300
C1523       C  0.27879939  0.84739763  0.54535285     0.03700
C1524       C  0.24653135  0.83095119  0.55220970    -0.04200
C1525       C  0.23660400  0.81314817  0.57485303    -0.01300
C1526       C  0.25907445  0.81372011  0.59144546     0.03700
C1527       C  0.33432220  0.86882202  0.55639938     0.38300
C1528       C  0.20353441  0.79606227  0.58199194     0.38300
C1529       C  0.24927312  0.79974498  0.61661046     0.36800
C1530       C  0.28937261  0.86539048  0.52188885     0.36800
N1531       N  0.24153491  0.78909369  0.63686692    -0.38100
N1532       N  0.29831479  0.87998634  0.50334252    -0.38100
N1533       N  0.17712977  0.78232789  0.58762258    -0.37500
N1534       N  0.36052627  0.88664941  0.55200433    -0.37500
C1535       C  0.25682848  0.82495029  0.95351668    -0.04200
C1536       C  0.25140594  0.81269160  0.92864468    -0.01300
C1537       C  0.27632759  0.81452524  0.91418990     0.03700
C1538       C  0.30716211  0.82985851  0.92416643    -0.04200
C1539       C  0.31186998  0.84005127  0.94983634    -0.01300
C1540       C  0.28627726  0.83605323  0.96483374     0.03700
C1541       C  0.22035571  0.79922331  0.91764513     0.38300
C1542       C  0.34316815  0.85782490  0.96020583     0.38300
C1543       C  0.29049888  0.84480945  0.99157718     0.36800
C1544       C  0.27063566  0.80281777  0.88824382     0.36800
N1545       N  0.29358408  0.85127767  0.01302729    -0.38100
N1546       N  0.26582376  0.79348119  0.86754458    -0.38100
N1547       N  0.36762721  0.87282413  0.96936277    -0.37500
N1548       N  0.19557190  0.78846878  0.90893236    -0.37500
C1549       C  0.17941541  0.98528105  0.57702843    -0.04200
C1550       C  0.19382654  0.96875575  0.58373142    -0.01300
C1551       C  0.19284994  0.94661675  0.56704998     0.03700
C1552       C  0.17669196  0.93999159  0.54360639    -0.04200
C1553       C  0.16148092  0.95581606  0.53705809    -0.01300
C1554       C  0.16260017  0.97823453  0.55386320     0.03700
C1555       C  0.20732150  0.97240564  0.60888476     0.38300
C1556       C  0.14481789  0.94914181  0.51310089     0.38300
C1557       C  0.14476245  0.99250335  0.54805525     0.36800
C1558       C  0.20699892  0.92922399  0.57489023     0.36800
N1559       N  0.12996796  0.00328677  0.54329236    -0.38100
N1560       N  0.21819656  0.91532152  0.58110999    -0.38100
N1561       N  0.13151734  0.94388505  0.49398062    -0.37500
N1562       N  0.21783777  0.47468693  0.62895793    -0.37500
C1563       C  0.08921677  0.74739425  0.53878187    -0.04200
C1564       C  0.07164494  0.71587615  0.53169984    -0.01300
C1565       C  0.05181181  0.69285686  0.54965242     0.03700
C1566       C  0.04681098  0.70096982  0.57429659    -0.04200
C1567       C  0.06433622  0.73245194  0.58145990    -0.01300
C1568       C  0.08589499  0.75539395  0.56404835     0.03700
C1569       C  0.07465707  0.70675652  0.50602354     0.38300
C1570       C  0.06092275  0.74128090  0.60709723     0.38300
C1571       C  0.10437664  0.78726882  0.57217922     0.36800
C1572       C  0.03885217  0.66075396  0.54329290     0.36800
N1573       N  0.11923791  0.81261524  0.57887979    -0.38100
N1574       N  0.02973198  0.63541362  0.53789310    -0.38100
N1575       N  0.05843927  0.74863323  0.62751428    -0.37500
N1576       N  0.07677604  0.69941431  0.48550368    -0.37500
C1577       C  0.44000774  0.87842714  0.80019675    -0.04200
C1578       C  0.44863325  0.87407408  0.82465827    -0.01300
C1579       C  0.42742703  0.86586579  0.84537769     0.03700
C1580       C  0.39642662  0.85922803  0.84124899    -0.04200
C1581       C  0.38677081  0.85938020  0.81595205    -0.01300
C1582       C  0.40908237  0.87122520  0.79590426     0.03700
C1583       C  0.47972101  0.87915616  0.82878197     0.38300
C1584       C  0.35377788  0.84581574  0.81015845     0.38300
C1585       C  0.40028273  0.87605803  0.77081528     0.36800
C1586       C  0.43811972  0.86520992  0.87092192     0.36800
N1587       N  0.39379443  0.88043349  0.75077025    -0.38100
N1588       N  0.44689488  0.86461893  0.89117263    -0.38100
N1589       N  0.32752770  0.83453390  0.80497823    -0.37500
N1590       N  0.50436712  0.88293014  0.83219680    -0.37500
C1591       C  0.06850205  0.95524301  0.79932770    -0.04200
C1592       C  0.09896553  0.96011091  0.79723244    -0.01300
C1593       C  0.11892674  0.97054702  0.81850022     0.03700
C1594       C  0.10844836  0.97611005  0.84189685    -0.04200
C1595       C  0.07761752  0.97024614  0.84420118    -0.01300
C1596       C  0.05808338  0.96095288  0.82271656     0.03700
C1597       C  0.11018388  0.95536754  0.77298016     0.38300
C1598       C  0.06521961  0.47179345  0.86898703     0.38300
C1599       C  0.02690237  0.45641424  0.82494532     0.36800
C1600       C  0.14979821  0.97448296  0.81644255     0.36800
N1601       N  0.00210090  0.45291563  0.82669191    -0.38100
N1602       N  0.17423326  0.97721702  0.81436003    -0.38100
N1603       N  0.05471670  0.47220537  0.88871561    -0.37500
N1604       N  0.11947785  0.95198351  0.75365555    -0.37500
C1605       C  0.07071886  0.95395487  0.68815625    -0.04200
C1606       C  0.09264579  0.94457510  0.68389756    -0.01300
C1607       C  0.11710443  0.96016859  0.66581665     0.03700
C1608       C  0.12031291  0.98552091  0.65212010    -0.04200
C1609       C  0.09693148  0.99289846  0.65426764    -0.01300
C1610       C  0.07256154  0.97766913  0.67246624     0.03700
C1611       C  0.09107682  0.91947713  0.69834308     0.38300
C1612       C  0.09728433  0.51534593  0.63695916     0.38300
C1613       C  0.04886003  0.48591122  0.67402824     0.36800
C1614       C  0.13944399  0.95040916  0.66179451     0.36800
N1615       N  0.02961346  0.49205372  0.67492044    -0.38100
N1616       N  0.15694700  0.94224927  0.65878298    -0.38100
N1617       N  0.09730197  0.53297706  0.62302889    -0.37500
N1618       N  0.09009648  0.89945998  0.70962874    -0.37500
C1619       C  0.38958396  0.85521979  0.65581696    -0.04200
C1620       C  0.42036795  0.87879472  0.64900345    -0.01300
C1621       C  0.44498044  0.88775424  0.66625014     0.03700
C1622       C  0.43869825  0.87416062  0.69068120    -0.04200
C1623       C  0.40875199  0.84833437  0.69643099    -0.01300
C1624       C  0.38420977  0.83863087  0.67879556     0.03700
C1625       C  0.42708889  0.89393482  0.62431280     0.38300
C1626       C  0.40317541  0.83193467  0.72041091     0.38300
C1627       C  0.35359875  0.81152774  0.68410975     0.36800
C1628       C  0.47708032  0.90933341  0.65811952     0.36800
N1629       N  0.32925587  0.78967761  0.68819291    -0.38100
N1630       N  0.00249570  0.92559863  0.65069124    -0.38100
N1631       N  0.39870142  0.81869393  0.73947876    -0.37500
N1632       N  0.43362274  0.90678754  0.60489918    -0.37500
C1633       C  0.05900537  0.63022383  0.80262713    -0.04200
C1634       C  0.04049219  0.61091141  0.82321233    -0.01300
C1635       C  0.02876279  0.62204640  0.84233884     0.03700
C1636       C  0.03045490  0.65041909  0.83915510    -0.04200
C1637       C  0.04758799  0.66925534  0.81802794    -0.01300
C1638       C  0.06253313  0.65966069  0.80032245     0.03700
C1639       C  0.03352202  0.57952560  0.82515519     0.38300
C1640       C  0.05001627  0.69866206  0.81454275     0.38300
C1641       C  0.08047313  0.67978424  0.77915483     0.36800
C1642       C  0.51748808  0.60546699  0.86637484     0.36800
N1643       N  0.09483134  0.69608716  0.76238189    -0.38100
N1644       N  0.50948740  0.59252047  0.88574813    -0.38100
N1645       N  0.05199652  0.72214981  0.81170564    -0.37500
N1646       N  0.52779151  0.55442801  0.82675330    -0.37500
C1647       C  0.14702888  0.54343537  0.84983274    -0.04200
C1648       C  0.12633833  0.55383014  0.85530435    -0.01300
C1649       C  0.12241434  0.57217235  0.83740347     0.03700
C1650       C  0.13763066  0.57874286  0.81340904    -0.04200
C1651       C  0.16168955  0.57239733  0.80948768    -0.01300
C1652       C  0.16666086  0.55506705  0.82787720     0.03700
C1653       C  0.10921956  0.54611473  0.87936606     0.38300
C1654       C  0.18167356  0.58429127  0.78691515     0.38300
C1655       C  0.19246138  0.55000417  0.82464336     0.36800
C1656       C  0.10543543  0.58699049  0.84466228     0.36800
N1657       N  0.21345253  0.54648830  0.82227732    -0.38100
N1658       N  0.09330753  0.59992980  0.85139708    -0.38100
N1659       N  0.19794475  0.59417514  0.76908334    -0.37500
N1660       N  0.09510277  0.54044348  0.89834518    -0.37500
C1661       C  0.14575976  0.57494806  0.70287365    -0.04200
C1662       C  0.15349621  0.58915434  0.67852988    -0.01300
C1663       C  0.16371758  0.57754304  0.65852792     0.03700
C1664       C  0.16733170  0.55207053  0.66279945    -0.04200
C1665       C  0.16346885  0.54064973  0.68815390    -0.01300
C1666       C  0.15120091  0.55088110  0.70768493     0.03700
C1667       C  0.14925868  0.61479252  0.67360069     0.38300
C1668       C  0.17320299  0.01922201  0.69451286     0.38300
C1669       C  0.14407468  0.53655370  0.73276697     0.36800
C1670       C  0.16942151  0.59150665  0.63341219     0.36800
N1671       N  0.13815867  0.52505939  0.75276686    -0.38100
N1672       N  0.17406834  0.60344795  0.61369021    -0.38100
N1673       N  0.18131204  0.00251769  0.70014664    -0.37500
N1674       N  0.14595987  0.63528409  0.66971261    -0.37500
C1675       C  0.04479633  0.63924488  0.64932398    -0.04200
C1676       C  0.03560248  0.60839803  0.65414470    -0.01300
C1677       C  0.04664812  0.60067405  0.67592102     0.03700
C1678       C  0.07002527  0.62410882  0.69177892    -0.04200
C1679       C  0.08232315  0.65537871  0.68458582    -0.01300
C1680       C  0.06969818  0.66278768  0.66368509     0.03700
C1681       C  0.01536612  0.58460563  0.63614898     0.38300
C1682       C  0.10730349  0.68055400  0.69898651     0.38300
C1683       C  0.58210792  0.69496246  0.65755571     0.36800
C1684       C  0.03279934  0.56833624  0.68202295     0.36800
N1685       N  0.59269134  0.72075504  0.65278775    -0.38100
N1686       N  0.02098919  0.54247331  0.68708528    -0.38100
N1687       N  0.62736947  0.70088230  0.71014994    -0.37500
N1688       N  0.99966601  0.56566665  0.62162170    -0.37500
C1689       C  0.43702422  0.56935248  0.80496215    -0.04200
C1690       C  0.43527623  0.56222183  0.83125723    -0.01300
C1691       C  0.44639612  0.58591396  0.84969965     0.03700
C1692       C  0.46100711  0.61698398  0.84180930    -0.04200
C1693       C  0.45886319  0.62353603  0.81597037    -0.01300
C1694       C  0.44604468  0.59961610  0.79772642     0.03700
C1695       C  0.42038728  0.53043760  0.83954233     0.38300
C1696       C  0.96862428  0.65469785  0.80843005     0.38300
C1697       C  0.44051719  0.60585167  0.77193435     0.36800
C1698       C  0.44244605  0.57833323  0.87673559     0.36800
N1699       N  0.93537529  0.61093689  0.75161625    -0.38100
N1700       N  0.43899149  0.57231268  0.89832007    -0.38100
N1701       N  0.97601068  0.67947532  0.80241918    -0.37500
N1702       N  0.40794122  0.50523725  0.84676637    -0.37500
C1703       C  0.38330835  0.94213445  0.81100256    -0.04200
C1704       C  0.40679677  0.94458841  0.82775721    -0.01300
C1705       C  0.39894110  0.92289177  0.84757688     0.03700
C1706       C  0.36781519  0.89779846  0.85062346    -0.04200
C1707       C  0.34381728  0.89729037  0.83601015    -0.01300
C1708       C  0.35148453  0.91922581  0.81628829     0.03700
C1709       C  0.43913835  0.97012224  0.82548508     0.38300
C1710       C  0.31114840  0.87354199  0.84042296     0.38300
C1711       C  0.32638561  0.91734593  0.80111631     0.36800
C1712       C  0.42292935  0.92682625  0.86531610     0.36800
N1713       N  0.30624787  0.91575672  0.78911036    -0.38100
N1714       N  0.44216528  0.93027523  0.87946602    -0.38100
N1715       N  0.28487346  0.85494977  0.84354293    -0.37500
N1716       N  0.46486016  0.99060519  0.82382799    -0.37500
C1717       C  0.44464085  0.56761925  0.69595703    -0.04200
C1718       C  0.43197408  0.56103117  0.67113040    -0.01300
C1719       C  0.44791971  0.58230138  0.65091313     0.03700
C1720       C  0.47455475  0.61199191  0.65594380    -0.04200
C1721       C  0.48384183  0.61993603  0.68163295    -0.01300
C1722       C  0.47129649  0.59707152  0.70088748     0.03700
C1723       C  0.40345162  0.53171373  0.66605767     0.38300
C1724       C  0.00537185  0.65182692  0.68854288     0.38300
C1725       C  0.98671855  0.60380639  0.72546045     0.36800
C1726       C  0.43752083  0.57274178  0.62493214     0.36800
N1727       N  0.99955399  0.60919999  0.74482217    -0.38100
N1728       N  0.42886786  0.56450902  0.60435817    -0.38100
N1729       N  0.02207166  0.67729097  0.69432504    -0.37500
N1730       N  0.38058091  0.50842206  0.66203821    -0.37500
C1731       C  0.35700725  0.88928834  0.65978305    -0.04200
C1732       C  0.34495048  0.88202967  0.68502079    -0.01300
C1733       C  0.35735472  0.90486945  0.70427843     0.03700
C1734       C  0.38222261  0.93522572  0.69861416    -0.04200
C1735       C  0.39396646  0.94255562  0.67325949    -0.01300
C1736       C  0.38030006  0.92011001  0.65374971     0.03700
C1737       C  0.31869410  0.85137048  0.69092847     0.38300
C1738       C  0.42022583  0.97317469  0.66719367     0.38300
C1739       C  0.38873583  0.92919644  0.62724807     0.36800
C1740       C  0.34522614  0.89667311  0.73019919     0.36800
N1741       N  0.39493793  0.93674237  0.60607421    -0.38100
N1742       N  0.33558910  0.88958346  0.75086046    -0.38100
N1743       N  0.44151954  0.49743476  0.66236765    -0.37500
N1744       N  0.29740648  0.82710333  0.69573041    -0.37500
C1745       C  0.47427906  0.66718559  0.57771274    -0.04200
C1746       C  0.45801711  0.64473359  0.55860895    -0.01300
C1747       C  0.43619307  0.64632325  0.54268092     0.03700
C1748       C  0.42898673  0.66942086  0.54657774    -0.04200
C1749       C  0.44468863  0.69143861  0.56620322    -0.01300
C1750       C  0.46702958  0.69020029  0.58169379     0.03700
C1751       C  0.46178586  0.61844846  0.55662154     0.38300
C1752       C  0.43656106  0.71444224  0.57161585     0.38300
C1753       C  0.98037788  0.71101912  0.60318360     0.36800
C1754       C  0.42151977  0.62427319  0.52213107     0.36800
N1755       N  0.99016503  0.72749130  0.62049316    -0.38100
N1756       N  0.41009607  0.60658884  0.50575544    -0.38100
N1757       N  0.43000937  0.73271428  0.57592209    -0.37500
N1758       N  0.46414214  0.59706550  0.55520566    -0.37500
C1759       C  0.34644003  0.52640181  0.43325900    -0.04200
C1760       C  0.37317382  0.55670702  0.43561889    -0.01300
C1761       C  0.37014139  0.58020358  0.44716542     0.03700
C1762       C  0.34128168  0.57271724  0.45892619    -0.04200
C1763       C  0.31834823  0.54112837  0.46271567    -0.01300
C1764       C  0.32310117  0.51823356  0.45234256     0.03700
C1765       C  0.40429702  0.56275293  0.42924060     0.38300
C1766       C  0.29100976  0.53191977  0.47890500     0.38300
C1767       C  0.31455262  0.99200953  0.46864218     0.36800
C1768       C  0.39634183  0.61180848  0.44588749     0.36800
N1769       N  0.30818006  0.97185948  0.48255631    -0.38100
N1770       N  0.41759477  0.63687274  0.44472165    -0.38100
N1771       N  0.26911344  0.52461020  0.49169997    -0.37500
N1772       N  0.42914233  0.56752043  0.42436510    -0.37500
C1773       C  0.26610871  0.58846320  0.54054843    -0.04200
C1774       C  0.23912676  0.59033976  0.54513075    -0.01300
C1775       C  0.21693969  0.57180705  0.56402657     0.03700
C1776       C  0.22347357  0.55460694  0.58117019    -0.04200
C1777       C  0.25234982  0.55585146  0.57880819    -0.01300
C1778       C  0.27258624  0.57099557  0.55763629     0.03700
C1779       C  0.23513432  0.61299999  0.53179829     0.38300
C1780       C  0.26243460  0.54340615  0.59875329     0.38300
C1781       C  0.29951721  0.56783476  0.55327071     0.36800
C1782       C  0.18710262  0.57025222  0.56553644     0.36800
N1783       N  0.32084597  0.56508775  0.54968518    -0.38100
N1784       N  0.16314821  0.56872222  0.56624340    -0.38100
N1785       N  0.27190656  0.03474949  0.61465573    -0.37500
N1786       N  0.23229205  0.63160205  0.52175302    -0.37500
C1787       C  0.40509395  0.75659208  0.46021404    -0.04200
C1788       C  0.40631678  0.78447646  0.45662559    -0.01300
C1789       C  0.43033536  0.80776564  0.44133374     0.03700
C1790       C  0.45104790  0.80201376  0.42696181    -0.04200
C1791       C  0.44776910  0.77277164  0.42900530    -0.01300
C1792       C  0.42592014  0.75079045  0.44655470     0.03700
C1793       C  0.38227535  0.78886118  0.46796859     0.38300
C1794       C  0.46447354  0.76381193  0.41181054     0.38300
C1795       C  0.42384557  0.72150515  0.44992893     0.36800
C1796       C  0.43342842  0.83766225  0.44047705     0.36800
N1797       N  0.42195578  0.69808055  0.45283028    -0.38100
N1798       N  0.43568924  0.86144252  0.44067656    -0.38100
N1799       N  0.47643205  0.75492249  0.39823425    -0.37500
N1800       N  0.36286645  0.79235495  0.47649251    -0.37500
C1801       C  0.19967177  0.67270172  0.42022663    -0.04200
C1802       C  0.23055976  0.69855039  0.42231552    -0.01300
C1803       C  0.25341097  0.69674365  0.43689437     0.03700
C1804       C  0.24541554  0.66922908  0.45013463    -0.04200
C1805       C  0.21358649  0.64442740  0.44988916    -0.01300
C1806       C  0.19130147  0.64584849  0.43456909     0.03700
C1807       C  0.23972544  0.72628560  0.40784554     0.38300
C1808       C  0.20342657  0.61661931  0.46475831     0.38300
C1809       C  0.16006253  0.61849808  0.43221283     0.36800
C1810       C  0.28571954  0.72242039  0.43634837     0.36800
N1811       N  0.13534608  0.59653239  0.43034755    -0.38100
N1812       N  0.31151992  0.74288894  0.43567829    -0.38100
N1813       N  0.19478401  0.59413485  0.47627370    -0.37500
N1814       N  0.24757748  0.74868841  0.39647442    -0.37500
C1815       C  0.33224769  0.75513820  0.54731277    -0.04200
C1816       C  0.30501616  0.74574169  0.56237229    -0.01300
C1817       C  0.30375610  0.76678427  0.57949502     0.03700
C1818       C  0.32874946  0.79802229  0.58027707    -0.04200
C1819       C  0.35479151  0.80773812  0.56352500    -0.01300
C1820       C  0.35691461  0.78641965  0.54775993     0.03700
C1821       C  0.27956369  0.71372840  0.56202879     0.38300
C1822       C  0.38114792  0.83931115  0.56393545     0.38300
C1823       C  0.38589368  0.79652944  0.53345797     0.36800
C1824       C  0.27854733  0.75512010  0.59827755     0.36800
N1825       N  0.40940669  0.80487514  0.52267949    -0.38100
N1826       N  0.25842062  0.74468976  0.61335149    -0.38100
N1827       N  0.40279599  0.86416404  0.56366518    -0.37500
N1828       N  0.25925963  0.68817791  0.56171207    -0.37500
C1829       C  0.23643803  0.57396925  0.95989057    -0.04200
C1830       C  0.24258419  0.55312138  0.94733687    -0.01300
C1831       C  0.21990292  0.53074971  0.93083788     0.03700
C1832       C  0.19010487  0.52755927  0.92874233    -0.04200
C1833       C  0.18275959  0.54570375  0.94441822    -0.01300
C1834       C  0.20622000  0.56968364  0.95903014     0.03700
C1835       C  0.27326539  0.55661632  0.94948549     0.38300
C1836       C  0.15172823  0.54157709  0.94388644     0.38300
C1837       C  0.19981202  0.59131273  0.97167321     0.36800
C1838       C  0.22891358  0.51393729  0.91407296     0.36800
N1839       N  0.19472876  0.60876120  0.98132096    -0.38100
N1840       N  0.23736912  0.50140523  0.90083743    -0.38100
N1841       N  0.12708761  0.53854052  0.94402732    -0.37500
N1842       N  0.29770149  0.55938902  0.95135244    -0.37500
C1843       C  0.25080870  0.65351817  0.04443385    -0.04200
C1844       C  0.26117790  0.68165969  0.05722702    -0.01300
C1845       C  0.24136784  0.68430057  0.07528220     0.03700
C1846       C  0.21001521  0.65971221  0.07898392    -0.04200
C1847       C  0.19946213  0.63183821  0.06545293    -0.01300
C1848       C  0.22019020  0.62834049  0.04923624     0.03700
C1849       C  0.29259564  0.70773664  0.05212150     0.38300
C1850       C  0.16709942  0.60655749  0.06821125     0.38300
C1851       C  0.21032024  0.59850501  0.03817252     0.36800
C1852       C  0.25403645  0.71160117  0.09099409     0.36800
N1853       N  0.20250019  0.57448054  0.02984860    -0.38100
N1854       N  0.26506289  0.73343778  0.10360835    -0.38100
N1855       N  0.14116029  0.58653094  0.07005068    -0.37500
N1856       N  0.31764898  0.72847244  0.04788718    -0.37500
C1857       C  0.42605096  0.67830729  0.95957290    -0.04200
C1858       C  0.45054376  0.67260482  0.96486121    -0.01300
C1859       C  0.46833184  0.66999456  0.94483885     0.03700
C1860       C  0.46506742  0.67679203  0.91934192    -0.04200
C1861       C  0.44202038  0.68429548  0.91405342    -0.01300
C1862       C  0.42232346  0.68447376  0.93380240     0.03700
C1863       C  0.45849497  0.67012596  0.99100953     0.38300
C1864       C  0.43803277  0.69126669  0.88798350     0.38300
C1865       C  0.39761331  0.69009004  0.92713870     0.36800
C1866       C  0.48790669  0.65751809  0.95046064     0.36800
N1867       N  0.37790016  0.69454345  0.92174011    -0.38100
N1868       N  0.50276951  0.64684384  0.95533848    -0.38100
N1869       N  0.93486842  0.69683423  0.86719541    -0.37500
N1870       N  0.46522088  0.66836437  0.01177169    -0.37500
C1871       C  0.31969692  0.56331215  0.04605956    -0.04200
C1872       C  0.33745681  0.55015423  0.03850395    -0.01300
C1873       C  0.33960370  0.52938255  0.05473951     0.03700
C1874       C  0.32012868  0.51748414  0.07665798    -0.04200
C1875       C  0.29888058  0.52720931  0.08235314    -0.01300
C1876       C  0.29909907  0.55055106  0.06745488     0.03700
C1877       C  0.35429815  0.55848656  0.01417239     0.38300
C1878       C  0.27872471  0.51514739  0.10484444     0.38300
C1879       C  0.27959263  0.56258179  0.07522219     0.36800
C1880       C  0.36514980  0.52410830  0.05061251     0.36800
N1881       N  0.26401307  0.57215167  0.08147494    -0.38100
N1882       N  0.38663287  0.02159629  0.04719227    -0.38100
N1883       N  0.26268123  0.50578682  0.12283643    -0.37500
N1884       N  0.36751940  0.56496081  0.99470267    -0.37500
C1885       C  0.43246276  0.74963110  0.05238039    -0.04200
C1886       C  0.44701062  0.77945132  0.04163358    -0.01300
C1887       C  0.46144652  0.80537123  0.05755770     0.03700
C1888       C  0.46659427  0.80207493  0.08347058    -0.04200
C1889       C  0.45352245  0.77236946  0.09418274    -0.01300
C1890       C  0.43555846  0.74619059  0.07892384     0.03700
C1891       C  0.44816985  0.78355484  0.01412076     0.38300
C1892       C  0.45703413  0.76864822  0.12123768     0.38300
C1893       C  0.41908144  0.71600501  0.09106664     0.36800
C1894       C  0.46708222  0.83454669  0.04803151     0.36800
N1895       N  0.40590563  0.69204844  0.10089490    -0.38100
N1896       N  0.97009915  0.85727843  0.04043695    -0.38100
N1897       N  0.45947337  0.76556261  0.14283970    -0.37500
N1898       N  0.44953191  0.78656910  0.99212467    -0.37500
C1899       C  0.34734306  0.80012931  0.92085333    -0.04200
C1900       C  0.32616691  0.76853379  0.91628457    -0.01300
C1901       C  0.32588438  0.74608542  0.93225719     0.03700
C1902       C  0.34639742  0.75496181  0.95336685    -0.02800
C1903       C  0.36797709  0.78657536  0.95764802    -0.01300
C1904       C  0.36962963  0.80889221  0.94058370     0.03700
C1905       C  0.30616927  0.75898308  0.89403154     0.38300
C1906       C  0.38697214  0.79643561  0.98044596     0.38300
C1907       C  0.39570920  0.84052333  0.94223311     0.36800
C1908       C  0.30494505  0.71366889  0.92641911     0.36800
N1909       N  0.41687940  0.86561937  0.94339712    -0.38100
N1910       N  0.28829340  0.68787299  0.92159766    -0.38100
N1911       N  0.40161179  0.80482521  0.99893428    -0.37500
N1912       N  0.29053133  0.75104062  0.87607606    -0.37500
O1913       O  0.85514120  0.11127667  0.02589364    -0.79700
O1914       O  0.86599442  0.22708519  0.97630591    -0.64400
O1915       O  0.84997429  0.16311853  0.02409526    -1.11000
C1916       C  0.76229107  0.10253855  0.97089158     1.07200
O1917       O  0.81634134  0.21235697  0.98075616    -0.77600
O1918       O  0.76937759  0.16204051  0.00213081    -0.65200
Ni1919     Ni  0.88135079  0.15461245  0.03294311     1.34900
C1920       C  0.77050486  0.15174025  0.02381289     0.85900
O1921       O  0.89337877  0.22542890  0.02072849    -0.78200
O1922       O  0.90935410  0.19715667  0.04136891    -0.88400
C1923       C  0.84323736  0.23075111  0.97128488     0.85500
O1924       O  0.90076987  0.16006526  0.00022966    -0.66600
O1925       O  0.76729310  0.12779310  0.96138927    -0.85900
C1926       C  0.90407894  0.17641152  0.98083401     0.86300
C1927       C  0.91075316  0.22248556  0.03682690     1.07900
H1928       H  0.83259400  0.15798741  0.96727002     0.39700
O1929       O  0.82477961  0.16303704  0.98230244    -1.08600
O1930       O  0.78760702  0.14057114  0.02844047    -0.65200
Ni1931     Ni  0.81390001  0.13146568  0.00715215     1.26300
O1932       O  0.88958769  0.19087248  0.97908521    -0.65500
O1933       O  0.77790959  0.10064828  0.98912991    -0.77800
C1934       C  0.82722980  0.09318752  0.03412822     0.85700
O1935       O  0.80672560  0.10061425  0.03187900    -0.64900
Ni1936     Ni  0.79280087  0.16995656  0.97119735     1.27400
Ni1937     Ni  0.85978463  0.19537445  0.00036098     1.26100
H1938       H  0.84336291  0.16803156  0.03990219     0.40200
O1939       O  0.91087240  0.19688620  0.52304127    -0.79700
O1940       O  0.79385045  0.18673971  0.47301772    -0.64400
O1941       O  0.84768352  0.17853593  0.51965760    -1.11000
C1942       C  0.83526239  0.09700269  0.46825739     1.07200
O1943       O  0.76629773  0.13797985  0.45989961    -0.77600
O1944       O  0.77338296  0.10582040  0.49765641    -0.65200
Ni1945     Ni  0.88528490  0.21348070  0.53195033     1.34900
C1946       C  0.78669584  0.10455758  0.51779911     0.85900
O1947       O  0.81921684  0.21364312  0.51782400    -0.78200
O1948       O  0.86287105  0.23299346  0.54172571    -0.88400
C1949       C  0.77014654  0.16465114  0.46188241     0.85500
O1950       O  0.89881838  0.23603675  0.50098550    -0.66600
O1951       O  0.80818762  0.09285259  0.46450690    -0.85900
C1952       C  0.88508951  0.23518613  0.48057039     0.86300
C1953       C  0.83803588  0.23216750  0.53478421     1.07900
H1954       H  0.83969822  0.16500106  0.46088215     0.39700
O1955       O  0.82674459  0.15471169  0.47574363    -1.08600
O1956       O  0.81646393  0.11653900  0.51919714    -0.65200
Ni1957     Ni  0.85210736  0.14929443  0.50016349     1.26300
O1958       O  0.85587771  0.21686894  0.47676276    -0.65500
O1959       O  0.85665792  0.12054489  0.47976401    -0.77800
C1960       C  0.90498357  0.17084784  0.53075386     0.85700
O1961       O  0.87887846  0.14684788  0.52513978    -0.64900
Ni1962     Ni  0.78978376  0.11805486  0.46398281     1.27400
Ni1963     Ni  0.82188689  0.18392989  0.49628529     1.26100
H1964       H  0.83491285  0.16843979  0.53466634     0.40200
O1965       O  0.90265610  0.02996343  0.72338580    -0.73300
O1966       O  0.87361334  0.47093204  0.77904735    -0.73300
O1967       O  0.90046874  0.03273852  0.77535783    -0.73400
O1968       O  0.87397476  0.46730860  0.72684589    -0.73400
O1969       O  0.92172065  0.47373870  0.72652901    -0.73300
O1970       O  0.94698441  0.03668630  0.77835679    -0.73300
O1971       O  0.91998281  0.47468308  0.77857721    -0.73300
O1972       O  0.95019109  0.03624116  0.72642310    -0.73400
Ni1973     Ni  0.88595518  0.99998304  0.75102185     1.25400
Ni1974     Ni  0.93636322  0.00548933  0.75248771     1.25400
C1975       C  0.93166125  0.04334651  0.71624012     0.88900
C1976       C  0.89250968  0.46351522  0.78835936     0.88800
C1977       C  0.92772608  0.04502237  0.78525972     0.88900
C1978       C  0.89332008  0.45992641  0.71840044     0.89000
O1979       O  0.60316672  0.06520193  0.73102636    -0.73300
O1980       O  0.56117723  0.09201879  0.77669245    -0.73300
O1981       O  0.56610148  0.08911388  0.72512233    -0.73400
O1982       O  0.59852900  0.06832606  0.78272759    -0.73400
O1983       O  0.64156920  0.11547922  0.78231091    -0.73300
O1984       O  0.60841916  0.13622087  0.72492848    -0.73300
O1985       O  0.60373424  0.13925571  0.77682885    -0.73300
O1986       O  0.64555893  0.11273520  0.73040436    -0.73400
Ni1987     Ni  0.58078445  0.07701038  0.75395689     1.25400
Ni1988     Ni  0.62631036  0.12762833  0.75369314     1.25400
C1989       C  0.63095992  0.08469352  0.72271345     0.88900
C1990       C  0.57539791  0.12005649  0.78435447     0.88800
C1991       C  0.58205223  0.11609309  0.71512147     0.88900
C1992       C  0.62544115  0.08824162  0.79180135     0.89000
O1993       O  0.53293776  0.45520202  0.76947019    -0.73300
O1994       O  0.97113114  0.41600285  0.71771584    -0.73300
O1995       O  0.97012809  0.41721113  0.76937196    -0.73400
O1996       O  0.53407388  0.45418062  0.71799953    -0.73400
O1997       O  0.53788743  0.41266423  0.71751257    -0.73300
O1998       O  0.97698185  0.37731564  0.77170328    -0.73300
O1999       O  0.97492478  0.37427387  0.72000619    -0.73300
O2000       O  0.53991888  0.41532701  0.76929185    -0.73400
Ni2001     Ni  0.50184816  0.43708805  0.74355793     1.25400
Ni2002     Ni  0.50767668  0.39343233  0.74465244     1.25400
C2003       C  0.54637613  0.44150160  0.77800753     0.88900
C2004       C  0.96274175  0.38871736  0.71052731     0.88800
C2005       C  0.96352818  0.39155262  0.77933769     0.88900
C2006       C  0.54630201  0.43945658  0.70885924     0.89000
C2007       C  0.52701884  0.17645780  0.59382606     0.03400
C2008       C  0.99396784  0.16276455  0.59649605     0.03400
C2009       C  0.97801066  0.14251549  0.61704276    -0.17100
C2010       C  0.99347592  0.13410308  0.63447744     0.03400
C2011       C  0.52644364  0.14664255  0.63110888     0.03400
C2012       C  0.54244394  0.16739746  0.61074301    -0.17100
H2013       H  0.56745493  0.17694623  0.60810685     0.05500
H2014       H  0.95295540  0.13299396  0.61936099     0.05500
C2015       C  0.69973061  0.03585859  0.60140594     0.03400
C2016       C  0.67649731  0.50462349  0.59696218     0.03400
C2017       C  0.65092224  0.48945945  0.61367687    -0.17100
C2018       C  0.64811072  0.50405207  0.63526122     0.03400
C2019       C  0.67131713  0.03525968  0.64051944     0.03400
C2020       C  0.69699130  0.05079342  0.62325002    -0.17100
H2021       H  0.71450906  0.07486967  0.62638022     0.05500
H2022       H  0.63312282  0.46552242  0.61010522     0.05500
C2023       C  0.83412314  0.33998986  0.90599213     0.03400
C2024       C  0.84973199  0.32367716  0.90248114     0.03400
C2025       C  0.86870644  0.32974863  0.88075079    -0.17100
C2026       C  0.87468968  0.35325110  0.86340500     0.03400
C2027       C  0.86098995  0.37132186  0.86788091     0.03400
C2028       C  0.84071374  0.36417166  0.88904092    -0.17100
H2029       H  0.82929269  0.37710933  0.89208114     0.05500
H2030       H  0.87919569  0.31600571  0.87742461     0.05500
C2031       C  0.83178633  0.31889036  0.60191649     0.03400
C2032       C  0.81539301  0.33474636  0.60366767     0.03400
C2033       C  0.82334341  0.35705956  0.62298025    -0.17100
C2034       C  0.84746101  0.36419649  0.64033702     0.03400
C2035       C  0.86309133  0.34782893  0.63878092     0.03400
C2036       C  0.85482856  0.32521851  0.62011826    -0.17100
H2037       H  0.86764503  0.31340618  0.61898845     0.05500
H2038       H  0.81130817  0.36962291  0.62398016     0.05500
C2039       C  0.67006624  0.01245579  0.90612214     0.03400
C2040       C  0.65200188  0.48007889  0.90218309     0.03400
C2041       C  0.63189527  0.46891795  0.88100844    -0.17100
C2042       C  0.63008203  0.48905140  0.86379395     0.03400
C2043       C  0.64870743  0.02118371  0.86740415     0.03400
C2044       C  0.66857189  0.03241791  0.88836364    -0.17100
H2045       H  0.68266975  0.05715691  0.89121774     0.05500
H2046       H  0.61768109  0.44428462  0.87773532     0.05500
C2047       C  0.98321706  0.17294517  0.89782110     0.03400
C2048       C  0.51679560  0.19045055  0.89548694     0.03400
C2049       C  0.53108560  0.18414599  0.87476916    -0.17100
C2050       C  0.51360840  0.15971280  0.85778559     0.03400
C2051       C  0.98042778  0.14263221  0.86002517     0.03400
C2052       C  0.96575845  0.14962101  0.87970921    -0.17100
H2053       H  0.94033179  0.13602698  0.88139352     0.05500
H2054       H  0.55648510  0.19729530  0.87274207     0.05500
O2055       O  0.73304281  0.36619187  0.53843642    -0.79700
O2056       O  0.62334050  0.36419092  0.47409944    -0.64400
O2057       O  0.67496881  0.35485003  0.52272494    -1.11000
C2058       C  0.65756996  0.27497596  0.46407706     1.07200
O2059       O  0.58973531  0.31440939  0.47905300    -0.77600
O2060       O  0.59817618  0.27031135  0.49774012    -0.65200
Ni2061     Ni  0.71535789  0.39032484  0.52921421     1.34900
C2062       C  0.61002356  0.27147419  0.51934532     0.85900
O2063       O  0.65118151  0.39343680  0.51854357    -0.78200
O2064       O  0.70283204  0.41930624  0.52176313    -0.88400
C2065       C  0.59638005  0.34029713  0.47017291     0.85500
O2066       O  0.72733996  0.39136556  0.49470131    -0.66600
O2067       O  0.63431267  0.27629967  0.45584188    -0.85900
C2068       C  0.71540302  0.39753781  0.47606764     0.86300
C2069       C  0.67656461  0.41645814  0.52670552     1.07900
H2070       H  0.66431591  0.33791605  0.46505816     0.39700
O2071       O  0.65113479  0.32928891  0.48006023    -1.08600
O2072       O  0.63851995  0.29163194  0.52462052    -0.65200
Ni2073     Ni  0.67448889  0.32173569  0.50415261     1.26300
O2074       O  0.68694314  0.39149554  0.47691498    -0.65500
O2075       O  0.67366395  0.28955300  0.48372314    -0.77800
C2076       C  0.72502398  0.33803039  0.53872291     0.85700
O2077       O  0.70015881  0.31670432  0.52827206    -0.64900
Ni2078     Ni  0.61268721  0.29586209  0.46792126     1.27400
Ni2079     Ni  0.65068103  0.36155085  0.49828905     1.26100
H2080       H  0.66322966  0.34737047  0.53875345     0.40200
O2081       O  0.69159958  0.39851076  0.96877382    -0.79700
O2082       O  0.68793495  0.29134361  0.02880530    -0.64400
O2083       O  0.67602919  0.33721551  0.97676411    -1.11000
C2084       C  0.59017119  0.31712766  0.02958747     1.07200
O2085       O  0.63790241  0.25383502  0.02659714    -0.77600
O2086       O  0.60053453  0.26114208  0.99395494    -0.65200
Ni2087     Ni  0.71070535  0.37451525  0.96304640     1.34900
C2088       C  0.59854165  0.27540178  0.97491717     0.85900
O2089       O  0.71808165  0.31647290  0.98472080    -0.78200
O2090       O  0.73249780  0.35369573  0.95518655    -0.88400
C2091       C  0.66603120  0.26368590  0.03353085     0.85500
O2092       O  0.73364878  0.39113974  0.99394027    -0.66600
O2093       O  0.58714596  0.29071359  0.03191401    -0.85900
C2094       C  0.73123656  0.38058405  0.01637429     0.86300
C2095       C  0.73424843  0.33193343  0.96532850     1.07900
H2096       H  0.65618411  0.32552539  0.03532405     0.39700
O2097       O  0.64915680  0.31407398  0.01957449    -1.08600
O2098       O  0.61171329  0.30466473  0.97442391    -0.65200
Ni2099     Ni  0.64328560  0.33845630  0.99513684     1.26300
O2100       O  0.71235686  0.35221971  0.02221423    -0.65500
O2101       O  0.61149047  0.33870368  0.01567281    -0.77800
C2102       C  0.66368696  0.39075327  0.96334438     0.85700
O2103       O  0.64030428  0.36494719  0.97057677    -0.64900
Ni2104     Ni  0.61415036  0.27425081  0.02804413     1.27400
Ni2105     Ni  0.68378000  0.31543196  0.00269234     1.26100
H2106       H  0.66687164  0.32338065  0.96245773     0.40200
O2107       O  0.96270091  0.08845573  0.22027024    -0.73300
O2108       O  0.52812147  0.12572208  0.27038775    -0.73300
O2109       O  0.52664625  0.12252053  0.21812776    -0.73400
O2110       O  0.96419715  0.09027767  0.27288340    -0.73400
O2111       O  0.96548250  0.04732308  0.27273529    -0.73300
O2112       O  0.52898037  0.08020536  0.22062873    -0.73300
O2113       O  0.52933464  0.08264547  0.27254747    -0.73300
O2114       O  0.96512388  0.04598109  0.22055643    -0.73400
Ni2115     Ni  0.99529887  0.10825300  0.24536092     1.25400
Ni2116     Ni  0.99726386  0.06255078  0.24664857     1.25400
C2117       C  0.95350560  0.06144732  0.21178623     0.88900
C2118       C  0.53928306  0.11034812  0.27993519     0.88800
C2119       C  0.53809754  0.10636523  0.21032850     0.88900
C2120       C  0.95495640  0.06341033  0.28219940     0.89000
O2121       O  0.89457892  0.43366326  0.27522532    -0.73300
O2122       O  0.93672472  0.40989852  0.22761198    -0.73300
O2123       O  0.90205490  0.43597170  0.22413092    -0.73400
O2124       O  0.92950560  0.40749251  0.27893934    -0.73400
O2125       O  0.88645107  0.36052015  0.27558667    -0.73300
O2126       O  0.85819488  0.38961136  0.22125004    -0.73300
O2127       O  0.89291016  0.36355649  0.22390506    -0.73300
O2128       O  0.85121902  0.38679725  0.27294196    -0.73400
Ni2129     Ni  0.91723800  0.42337963  0.25163576     1.25400
Ni2130     Ni  0.87057381  0.37339550  0.24836450     1.25400
C2131       C  0.86615156  0.41420149  0.28201270     0.88900
C2132       C  0.92146882  0.38313614  0.21745667     0.88800
C2133       C  0.87591056  0.41741903  0.21341728     0.88900
C2134       C  0.91263753  0.37940341  0.28620741     0.89000
C2135       C  0.81792443  0.47466102  0.40586610     0.03400
C2136       C  0.84211587  0.00657088  0.40947265     0.03400
C2137       C  0.86246448  0.02144537  0.38800512    -0.17100
C2138       C  0.86328937  0.00556330  0.36627154     0.03400
C2139       C  0.84140279  0.47359319  0.36443383     0.03400
C2140       C  0.81851058  0.45912579  0.38366298    -0.17100
H2141       H  0.80071477  0.43492100  0.38133137     0.05500
H2142       H  0.87823646  0.04611742  0.38758026     0.05500
O2143       O  0.58771502  0.46586330  0.27877714    -0.73300
O2144       O  0.63426429  0.03353351  0.23235121    -0.73300
O2145       O  0.62636545  0.02793623  0.28397551    -0.73400
O2146       O  0.59645125  0.47241327  0.22733786    -0.73400
O2147       O  0.55520712  0.47763800  0.22446056    -0.73300
O2148       O  0.58447558  0.03264000  0.28144824    -0.73300
O2149       O  0.59286871  0.03909771  0.22997695    -0.73300
O2150       O  0.54622480  0.47095959  0.27544122    -0.73400
Ni2151     Ni  0.61265064  0.49969588  0.25584680     1.25400
Ni2152     Ni  0.56822907  0.50527586  0.25278810     1.25400
C2153       C  0.55923049  0.45718285  0.28468805     0.88900
C2154       C  0.62075652  0.04686180  0.22307058     0.88800
C2155       C  0.61063259  0.03984655  0.29174065     0.88900
C2156       C  0.57130840  0.46643062  0.21597147     0.89000
C2157       C  0.81338894  0.46744837  0.09432066     0.03400
C2158       C  0.82631509  0.99980173  0.09591204     0.03400
C2159       C  0.84768605  0.01686745  0.11561407    -0.17100
C2160       C  0.85656954  0.00257524  0.13372866     0.03400
C2161       C  0.84308677  0.47032730  0.13205168     0.03400
C2162       C  0.82193024  0.45332882  0.11263116    -0.17100
H2163       H  0.81225106  0.42867698  0.11158793     0.05500
H2164       H  0.85797092  0.04160227  0.11650466     0.05500
C2165       C  0.67831544  0.17042149  0.39913737     0.03400
C2166       C  0.66161846  0.18608124  0.39842901     0.03400
C2167       C  0.63982497  0.17912036  0.37852516    -0.17100
C2168       C  0.63418607  0.15716855  0.35960934     0.03400
C2169       C  0.65103579  0.14196586  0.36058371     0.03400
C2170       C  0.67323323  0.14932659  0.37965273    -0.17100
H2171       H  0.68548622  0.13694127  0.38020588     0.05500
H2172       H  0.62688144  0.19079305  0.37788060     0.05500
C2173       C  0.67139991  0.17395265  0.09800454     0.03400
C2174       C  0.68971042  0.16013808  0.10010565     0.03400
C2175       C  0.68563807  0.14204278  0.12181363    -0.17100
C2176       C  0.66160104  0.13430827  0.13997120     0.03400
C2177       C  0.64121038  0.14567481  0.13644674     0.03400
C2178       C  0.64699796  0.16582161  0.11590814    -0.17100
H2179       H  0.63196741  0.17511023  0.11358404     0.05500
H2180       H  0.70081284  0.13291545  0.12401770     0.05500
C2181       C  0.97031483  0.32390785  0.40601847     0.03400
C2182       C  0.50381057  0.34101633  0.40458253     0.03400
C2183       C  0.51890081  0.36243242  0.38452063    -0.17100
C2184       C  0.50166300  0.36701014  0.36607235     0.03400
C2185       C  0.96852145  0.34964006  0.36744845     0.03400
C2186       C  0.95334264  0.32813180  0.38695411    -0.17100
H2187       H  0.92782522  0.31481126  0.38753862     0.05500
H2188       H  0.54437936  0.37586774  0.38336481     0.05500
C2189       C  0.98506893  0.32972708  0.09956071     0.03400
C2190       C  0.51773345  0.34986241  0.09576328     0.03400
C2191       C  0.53417659  0.37556555  0.11158002    -0.17100
C2192       C  0.51892197  0.38055404  0.13202357     0.03400
C2193       C  0.98616486  0.35974645  0.13619289     0.03400
C2194       C  0.96971187  0.33490611  0.11959162    -0.17100
H2195       H  0.94471428  0.31894538  0.12262912     0.05500
H2196       H  0.55928511  0.39095307  0.10869137     0.05500
C2197       C  0.54182381  0.43196920  0.30366067    -0.04200
C2198       C  0.54525172  0.40611543  0.30397098    -0.01300
C2199       C  0.53251129  0.38482541  0.32446886     0.03700
C2200       C  0.51829507  0.39049539  0.34552960    -0.04200
C2201       C  0.51685889  0.41735038  0.34567447    -0.01300
C2202       C  0.52455175  0.43542076  0.32351601     0.03700
C2203       C  0.55988991  0.40025645  0.28239821     0.38300
C2204       C  0.51112982  0.42846894  0.36936371     0.38300
C2205       C  0.51306796  0.45615172  0.32086463     0.36800
C2206       C  0.53483346  0.35766867  0.32402992     0.36800
N2207       N  0.50319257  0.97209790  0.31845612    -0.38100
N2208       N  0.53714970  0.33624849  0.32315668    -0.38100
N2209       N  0.50794339  0.43828292  0.38835743    -0.37500
N2210       N  0.57132951  0.39542524  0.26510460    -0.37500
C2211       C  0.56098427  0.44681309  0.19237515    -0.04200
C2212       C  0.53976101  0.44792212  0.17509851    -0.01300
C2213       C  0.52947678  0.42904041  0.15332256     0.03700
C2214       C  0.53763564  0.40675321  0.14970773    -0.04200
C2215       C  0.56098972  0.40740614  0.16514076    -0.01300
C2216       C  0.57285738  0.42748297  0.18625407     0.03700
C2217       C  0.52757005  0.46783379  0.17957958     0.38300
C2218       C  0.57187906  0.38642837  0.16007682     0.38300
C2219       C  0.59650299  0.42704572  0.20184351     0.36800
C2220       C  0.01057726  0.43264659  0.13437978     0.36800
N2221       N  0.61554556  0.42667200  0.21398815    -0.38100
N2222       N  0.99587909  0.43592571  0.11919493    -0.38100
N2223       N  0.58075339  0.36986885  0.15609473    -0.37500
N2224       N  0.01731845  0.48324528  0.18340568    -0.37500
C2225       C  0.62362153  0.06384786  0.31182551    -0.04200
C2226       C  0.60545869  0.06105744  0.33364016    -0.01300
C2227       C  0.61465716  0.08656670  0.34962516     0.03700
C2228       C  0.64252927  0.11486647  0.34422649    -0.04200
C2229       C  0.66299256  0.11638084  0.32464956    -0.01300
C2230       C  0.65348581  0.09092036  0.30836420     0.03700
C2231       C  0.57955087  0.03126493  0.34164352     0.38300
C2232       C  0.69387070  0.14390905  0.32144448     0.38300
C2233       C  0.67443566  0.09261314  0.28811267     0.36800
C2234       C  0.59630089  0.08313765  0.37248939     0.36800
N2235       N  0.69119180  0.09379444  0.27206433    -0.38100
N2236       N  0.58165864  0.07997410  0.39080157    -0.38100
N2237       N  0.71865629  0.16573913  0.31898830    -0.37500
N2238       N  0.55976159  0.50803708  0.34998395    -0.37500
C2239       C  0.63676229  0.07062009  0.20297649    -0.04200
C2240       C  0.64551084  0.10129750  0.20765760    -0.01300
C2241       C  0.65688388  0.12295337  0.18747622     0.03700
C2242       C  0.65733813  0.11350599  0.16207269    -0.04200
C2243       C  0.65181029  0.08345190  0.15804435    -0.01300
C2244       C  0.64146610  0.06212957  0.17845880     0.03700
C2245       C  0.64299821  0.11050120  0.23336562     0.38300
C2246       C  0.65649989  0.07382869  0.13316966     0.38300
C2247       C  0.63435934  0.03095775  0.17393536     0.36800
C2248       C  0.66961948  0.15521383  0.19311066     0.36800
N2249       N  0.62889286  0.00622912  0.17015685    -0.38100
N2250       N  0.68029301  0.18096651  0.19799883    -0.38100
N2251       N  0.66070095  0.06518782  0.11394907    -0.37500
N2252       N  0.64097384  0.11754817  0.25400026    -0.37500
C2253       C  0.92359679  0.36906323  0.30768626    -0.04200
C2254       C  0.92952820  0.34501860  0.30448331    -0.01300
C2255       C  0.94343987  0.33788536  0.32442029     0.03700
C2256       C  0.94930004  0.35326842  0.34803075    -0.04200
C2257       C  0.93934740  0.37423987  0.35213409    -0.01300
C2258       C  0.92911251  0.38405660  0.33145260     0.03700
C2259       C  0.92311112  0.32893173  0.28029512     0.38300
C2260       C  0.43946315  0.38592938  0.37741062     0.38300
C2261       C  0.92568688  0.41052068  0.33448674     0.36800
C2262       C  0.95177245  0.31479222  0.32076795     0.36800
N2263       N  0.42370425  0.43203778  0.33693528    -0.38100
N2264       N  0.95840612  0.29633072  0.31800986    -0.38100
N2265       N  0.43883046  0.39595117  0.39711865    -0.37500
N2266       N  0.91801234  0.31604594  0.26101552    -0.37500
C2267       C  0.93678959  0.37524340  0.19711044    -0.04200
C2268       C  0.92653078  0.37227086  0.17164606    -0.01300
C2269       C  0.94295000  0.36774040  0.15176517     0.03700
C2270       C  0.96814598  0.36355347  0.15744279    -0.04200
C2271       C  0.97601392  0.36321759  0.18328879    -0.01300
C2272       C  0.96208911  0.37142889  0.20280337     0.03700
C2273       C  0.89960065  0.37472860  0.16568798     0.38300
C2274       C  0.49689817  0.35263890  0.19003719     0.38300
C2275       C  0.97419036  0.37643570  0.22859554     0.36800
C2276       C  0.93428094  0.36810769  0.12541084     0.36800
N2277       N  0.48437792  0.38102447  0.24901240    -0.38100
N2278       N  0.92750230  0.36845535  0.10437579    -0.38100
N2279       N  0.51301235  0.34362717  0.19572534    -0.37500
N2280       N  0.87797821  0.37631462  0.16064507    -0.37500
C2281       C  0.84208882  0.45450281  0.34277919    -0.04200
C2282       C  0.84750692  0.43028268  0.34759602    -0.01300
C2283       C  0.84996373  0.41354302  0.32719650     0.03700
C2284       C  0.85155699  0.42355161  0.30194427    -0.04200
C2285       C  0.84374339  0.44586714  0.29681845    -0.01300
C2286       C  0.83730868  0.46010383  0.31722236     0.03700
C2287       C  0.85325726  0.42381856  0.37315832     0.38300
C2288       C  0.84114641  0.45310183  0.27054621     0.38300
C2289       C  0.82449179  0.47925687  0.31193413     0.36800
C2290       C  0.85125032  0.38619991  0.33215770     0.36800
N2291       N  0.81354895  0.49389167  0.30746266    -0.38100
N2292       N  0.85170177  0.36408515  0.33610623    -0.38100
N2293       N  0.83868754  0.45839483  0.24950110    -0.37500
N2294       N  0.85900841  0.41816754  0.39298244    -0.37500
C2295       C  0.86652926  0.42841820  0.19128472    -0.04200
C2296       C  0.88902565  0.44609112  0.17205320    -0.01300
C2297       C  0.88060415  0.45782383  0.15150064     0.03700
C2298       C  0.85037174  0.45353222  0.15092774    -0.04200
C2299       C  0.82727032  0.43412610  0.16904199    -0.01300
C2300       C  0.83528656  0.42144505  0.18917777     0.03700
C2301       C  0.92068047  0.45168524  0.17295809     0.38300
C2302       C  0.79541416  0.42781126  0.16733714     0.38300
C2303       C  0.81164918  0.40244341  0.20826535     0.36800
C2304       C  0.90266228  0.47326673  0.13051534     0.36800
N2305       N  0.79274621  0.38728822  0.22344645    -0.38100
N2306       N  0.92044040  0.48508967  0.11380400    -0.38100
N2307       N  0.77001274  0.42275816  0.16601387    -0.37500
N2308       N  0.94591299  0.45618362  0.17362296    -0.37500
C2309       C  0.93245888  0.05047223  0.30471377    -0.04200
C2310       C  0.90882834  0.05760460  0.30888616    -0.01300
C2311       C  0.88745608  0.04440283  0.32980935     0.03700
C2312       C  0.88832305  0.02274819  0.34611622    -0.04200
C2313       C  0.91312918  0.01733265  0.34316947    -0.01300
C2314       C  0.93489020  0.03084510  0.32266212     0.03700
C2315       C  0.90546450  0.07754591  0.29120524     0.38300
C2316       C  0.91743016  0.49923285  0.36222802     0.38300
C2317       C  0.96074305  0.52552950  0.32104477     0.36800
C2318       C  0.86453072  0.05319402  0.33462863     0.36800
N2319       N  0.98147674  0.52147893  0.31996126    -0.38100
N2320       N  0.84637717  0.06034083  0.33867286    -0.38100
N2321       N  0.92139709  0.48527999  0.37753762    -0.37500
N2322       N  0.90254376  0.09326615  0.27702714    -0.37500
C2323       C  0.92867850  0.04795228  0.19170468    -0.04200
C2324       C  0.93677866  0.05350281  0.16544449    -0.01300
C2325       C  0.91311389  0.04050539  0.14654612     0.03700
C2326       C  0.88102799  0.02138215  0.15364554    -0.04200
C2327       C  0.87288823  0.01821438  0.17996969    -0.01300
C2328       C  0.89656974  0.03120811  0.19882646     0.03700
C2329       C  0.96948264  0.07296099  0.15778514     0.38300
C2330       C  0.84010771  0.50275507  0.18767223     0.38300
C2331       C  0.88802149  0.52808720  0.22569845     0.36800
C2332       C  0.92188466  0.04651000  0.11971264     0.36800
N2333       N  0.88160471  0.52608555  0.24721933    -0.38100
N2334       N  0.92889773  0.05129794  0.09829813    -0.38100
N2335       N  0.81402107  0.49087333  0.19405127    -0.37500
N2336       N  0.99545493  0.08871208  0.15137529    -0.37500
C2337       C  0.60989484  0.14922627  0.33929686    -0.04200
C2338       C  0.61889654  0.15568258  0.31321922    -0.01300
C2339       C  0.59589527  0.14349337  0.29381044     0.03700
C2340       C  0.56364480  0.12478729  0.30025663    -0.04200
C2341       C  0.55457260  0.12145079  0.32630083    -0.01300
C2342       C  0.57752001  0.13367762  0.34571057     0.03700
C2343       C  0.65172402  0.17637566  0.30645654     0.38300
C2344       C  0.52158203  0.10660407  0.33318444     0.38300
C2345       C  0.56771356  0.13054762  0.37228859     0.36800
C2346       C  0.60538027  0.15118745  0.26726600     0.36800
N2347       N  0.55986334  0.12831482  0.39348485    -0.38100
N2348       N  0.61329524  0.15776809  0.24617450    -0.38100
N2349       N  0.49540716  0.09545236  0.33902181    -0.37500
N2350       N  0.67781781  0.19335558  0.30097805    -0.37500
C2351       C  0.61309556  0.13624029  0.15357178    -0.04200
C2352       C  0.61048306  0.15837417  0.16806559    -0.01300
C2353       C  0.58523139  0.14905482  0.18563363     0.03700
C2354       C  0.56235482  0.11738951  0.18917430    -0.04200
C2355       C  0.56342161  0.09567360  0.17276853    -0.01300
C2356       C  0.58841978  0.10505020  0.15505703     0.03700
C2357       C  0.63417837  0.19087193  0.16542205     0.38300
C2358       C  0.53769624  0.06375323  0.17289775     0.38300
C2359       C  0.58793628  0.08262100  0.13758098     0.36800
C2360       C  0.58333783  0.17228348  0.20023621     0.36800
N2361       N  0.58713857  0.06452509  0.12366539    -0.38100
N2362       N  0.58187382  0.19093770  0.21175245    -0.38100
N2363       N  0.01673979  0.03851452  0.17285680    -0.37500
N2364       N  0.65294260  0.21684971  0.16339974    -0.37500
C2365       C  0.67276573  0.24191506  0.04743034    -0.04200
C2366       C  0.69046575  0.25120601  0.07019755    -0.01300
C2367       C  0.69169973  0.22922357  0.08592319     0.03700
C2368       C  0.67689161  0.19790958  0.07846685    -0.04200
C2369       C  0.66119804  0.18909738  0.05486751    -0.01300
C2370       C  0.65867375  0.21070890  0.03970093     0.03700
C2371       C  0.70531604  0.28294217  0.07865546     0.38300
C2372       C  0.64544937  0.15720466  0.04682546     0.38300
C2373       C  0.64025552  0.20000799  0.01659625     0.36800
C2374       C  0.70605010  0.23843913  0.11089698     0.36800
N2375       N  0.62491187  0.19026334  0.99857015    -0.38100
N2376       N  0.71729593  0.24586291  0.13088465    -0.38100
N2377       N  0.63239993  0.13203224  0.03962186    -0.37500
N2378       N  0.71716167  0.30827580  0.08534727    -0.37500
C2379       C  0.56900917  0.32347955  0.04539815    -0.04200
C2380       C  0.56045026  0.34447249  0.03690031    -0.01300
C2381       C  0.54552149  0.35464860  0.05381247     0.03700
C2382       C  0.53584212  0.34144306  0.07836932    -0.04200
C2383       C  0.54360108  0.32003194  0.08681242    -0.01300
C2384       C  0.56024522  0.31121726  0.07061505     0.03700
C2385       C  0.56568625  0.35473076  0.01049426     0.38300
C2386       C  0.53653007  0.30879221  0.11300806     0.38300
C2387       C  0.56938849  0.29052426  0.08072696     0.36800
C2388       C  0.54198497  0.38009031  0.04651034     0.36800
N2389       N  0.57650845  0.27398239  0.08894857    -0.38100
N2390       N  0.53985889  0.40086034  0.04079720    -0.38100
N2391       N  0.53145978  0.30014202  0.13396925    -0.37500
N2392       N  0.56926418  0.36268648  0.98936487    -0.37500
C2393       C  0.79205241  0.44716978  0.07348795    -0.04200
C2394       C  0.75901342  0.43008674  0.07715085    -0.01300
C2395       C  0.73911663  0.40784182  0.05890296     0.03700
C2396       C  0.75196741  0.40293433  0.03642760    -0.04200
C2397       C  0.78499788  0.42026259  0.03279387    -0.01300
C2398       C  0.80479663  0.44027338  0.05208670     0.03700
C2399       C  0.74558839  0.43358078  0.10068507     0.38300
C2400       C  0.79896863  0.41750842  0.00925938     0.38300
C2401       C  0.83785031  0.45029797  0.05148432     0.36800
C2402       C  0.70533621  0.39063633  0.06302022     0.36800
N2403       N  0.86385264  0.45693699  0.05135538    -0.38100
N2404       N  0.67840251  0.37707728  0.06646892    -0.38100
N2405       N  0.81039639  0.41605246  0.99035753    -0.37500
N2406       N  0.73466836  0.43578926  0.11959208    -0.37500
C2407       C  0.66656952  0.21066129  0.41707020    -0.04200
C2408       C  0.65748854  0.20381652  0.44316042    -0.01300
C2409       C  0.65865664  0.22657506  0.45949093     0.03700
C2410       C  0.66577974  0.25515752  0.44940819    -0.04200
C2411       C  0.67565536  0.26246110  0.42366461    -0.01300
C2412       C  0.67672865  0.24063526  0.40773453     0.03700
C2413       C  0.64324659  0.17265761  0.45280779     0.38300
C2414       C  0.68388927  0.29227302  0.41337174     0.38300
C2415       C  0.68681710  0.24859175  0.38124645     0.36800
C2416       C  0.65080317  0.22004794  0.48645424     0.36800
N2417       N  0.69472336  0.25476801  0.36009832    -0.38100
N2418       N  0.64490146  0.21515313  0.50803479    -0.38100
N2419       N  0.69033250  0.31600168  0.40517616    -0.37500
N2420       N  0.63094279  0.14805039  0.46136008    -0.37500
C2421       C  0.52466390  0.33771963  0.42290193    -0.04200
C2422       C  0.53044809  0.35115480  0.44750227    -0.01300
C2423       C  0.55453197  0.35290064  0.46282771     0.03700
C2424       C  0.57288229  0.34115861  0.45372732    -0.04200
C2425       C  0.56674979  0.32717716  0.42944912    -0.01300
C2426       C  0.54319529  0.32591442  0.41396996     0.03700
C2427       C  0.01268395  0.36441475  0.45679415     0.38300
C2428       C  0.58504355  0.31430360  0.42022787     0.38300
C2429       C  0.53844984  0.31270882  0.38860854     0.36800
C2430       C  0.56022663  0.36644913  0.48809947     0.36800
N2431       N  0.53477631  0.30171026  0.36857937    -0.38100
N2432       N  0.56470833  0.37721071  0.50828933    -0.38100
N2433       N  0.59955406  0.30396277  0.41294477    -0.37500
N2434       N  0.99900157  0.37531429  0.46475700    -0.37500
C2435       C  0.79062673  0.45515913  0.42346767    -0.04200
C2436       C  0.76506854  0.45975962  0.42603680    -0.01300
C2437       C  0.73937607  0.44051543  0.44262293     0.03700
C2438       C  0.73708027  0.41414675  0.45396572    -0.04200
C2439       C  0.76028856  0.40715916  0.44785329    -0.01300
C2440       C  0.78812103  0.42892274  0.43509055     0.03700
C2441       C  0.76612562  0.48527406  0.41282773     0.38300
C2442       C  0.75542044  0.37728859  0.45456787     0.38300
C2443       C  0.81547066  0.42621426  0.43709610     0.36800
C2444       C  0.71650870  0.44889672  0.44901511     0.36800
N2445       N  0.83718318  0.42419065  0.44041959    -0.38100
N2446       N  0.69839743  0.45574107  0.45429924    -0.38100
N2447       N  0.75108427  0.35319741  0.45946109    -0.37500
N2448       N  0.76715791  0.00578911  0.40236911    -0.37500
C2449       C  0.53826727  0.21350217  0.91520043    -0.04200
C2450       C  0.53752148  0.24028850  0.92117661    -0.01300
C2451       C  0.55736493  0.26097590  0.94035668     0.03700
C2452       C  0.57977728  0.25635363  0.95252276    -0.04200
C2453       C  0.58302369  0.23175254  0.94424587    -0.01300
C2454       C  0.56152943  0.20964746  0.92692548     0.03700
C2455       C  0.51763448  0.24762384  0.90679934     0.38300
C2456       C  0.61027132  0.23069376  0.95190337     0.38300
C2457       C  0.56318321  0.18249766  0.92172045     0.36800
C2458       C  0.55455779  0.28694019  0.94752697     0.36800
N2459       N  0.56437389  0.16077289  0.91769006    -0.38100
N2460       N  0.55232462  0.30771062  0.95313003    -0.38100
N2461       N  0.63268331  0.23070696  0.95729602    -0.37500
N2462       N  0.50231492  0.25420741  0.89530120    -0.37500
C2463       C  0.65475668  0.45724778  0.91840880    -0.04200
C2464       C  0.64371330  0.45096893  0.94406581    -0.01300
C2465       C  0.64665347  0.42935242  0.95889355     0.03700
C2466       C  0.65909952  0.41260851  0.94788449    -0.04200
C2467       C  0.66900601  0.41793978  0.92203291    -0.01300
C2468       C  0.66690070  0.44005775  0.90741562     0.03700
C2469       C  0.62751797  0.46511133  0.95493266     0.38300
C2470       C  0.68120848  0.40035335  0.91032467     0.38300
C2471       C  0.67765672  0.44524663  0.88098325     0.36800
C2472       C  0.63788958  0.42510703  0.98576098     0.36800
N2473       N  0.68654379  0.44934800  0.85999553    -0.38100
N2474       N  0.63122006  0.42197573  0.00727812    -0.38100
N2475       N  0.69085552  0.38628292  0.90096719    -0.37500
N2476       N  0.61385999  0.47543849  0.96408887    -0.37500
C2477       C  0.79141995  0.33062190  0.58475577    -0.04200
C2478       C  0.80114918  0.34767187  0.56173470    -0.01300
C2479       C  0.77879951  0.34739830  0.54535339     0.03700
C2480       C  0.74653139  0.33095145  0.55220995    -0.04200
C2481       C  0.73660390  0.31314804  0.57485306    -0.01300
C2482       C  0.75907425  0.31371991  0.59144556     0.03700
C2483       C  0.83432223  0.36882322  0.55640043     0.38300
C2484       C  0.70353422  0.29606181  0.58199169     0.38300
C2485       C  0.74927271  0.29974444  0.61661043     0.36800
C2486       C  0.78937286  0.36539159  0.52188961     0.36800
N2487       N  0.74153430  0.28909290  0.63686680    -0.38100
N2488       N  0.79831501  0.37998777  0.50334344    -0.38100
N2489       N  0.67712951  0.28232715  0.58762206    -0.37500
N2490       N  0.86052625  0.38665108  0.55200570    -0.37500
C2491       C  0.75682836  0.32495013  0.95351697    -0.04200
C2492       C  0.75140580  0.31269128  0.92864504    -0.01300
C2493       C  0.77632750  0.31452510  0.91419021     0.03700
C2494       C  0.80716205  0.32985856  0.92416670    -0.04200
C2495       C  0.81186995  0.34005144  0.94983658    -0.01300
C2496       C  0.78627722  0.33605335  0.96483398     0.03700
C2497       C  0.72035548  0.29922264  0.91764560     0.38300
C2498       C  0.84316812  0.35782515  0.96020603     0.38300
C2499       C  0.79049885  0.34480966  0.99157739     0.36800
C2500       C  0.77063561  0.30281770  0.88824411     0.36800
N2501       N  0.79358403  0.35127791  0.01302749    -0.38100
N2502       N  0.76582374  0.29348118  0.86754485    -0.38100
N2503       N  0.86762719  0.37282440  0.96936297    -0.37500
N2504       N  0.69557159  0.28846782  0.90893294    -0.37500
C2505       C  0.67941567  0.48528148  0.57702848    -0.04200
C2506       C  0.69382673  0.46875613  0.58373152    -0.01300
C2507       C  0.69285010  0.44661711  0.56705010     0.03700
C2508       C  0.67669217  0.43999196  0.54360649    -0.04200
C2509       C  0.66148126  0.45581653  0.53705811    -0.01300
C2510       C  0.66260050  0.47823501  0.55386321     0.03700
C2511       C  0.70732162  0.47240597  0.60888489     0.38300
C2512       C  0.64481841  0.44914242  0.51310082     0.38300
C2513       C  0.64476281  0.49250385  0.54805519     0.36800
C2514       C  0.70699902  0.42922429  0.57489039     0.36800
N2515       N  0.62996835  0.50328727  0.54329222    -0.38100
N2516       N  0.71819658  0.41532178  0.58111019    -0.38100
N2517       N  0.63151802  0.44388579  0.49398048    -0.37500
N2518       N  0.71783832  0.97468692  0.62895785    -0.37500
C2519       C  0.58921691  0.24739449  0.53878190    -0.04200
C2520       C  0.57164502  0.21587640  0.53169979    -0.01300
C2521       C  0.55181201  0.19285706  0.54965237     0.03700
C2522       C  0.54681128  0.20096995  0.57429658    -0.04200
C2523       C  0.56433655  0.23245204  0.58145998    -0.01300
C2524       C  0.58589527  0.25539410  0.56404844     0.03700
C2525       C  0.57465694  0.20675686  0.50602340     0.38300
C2526       C  0.56092313  0.24128089  0.60709736     0.38300
C2527       C  0.60437699  0.28726893  0.57217938     0.36800
C2528       C  0.53885244  0.16075418  0.54329279     0.36800
N2529       N  0.61923834  0.31261533  0.57888001    -0.38100
N2530       N  0.52973233  0.13541387  0.53789294    -0.38100
N2531       N  0.55843960  0.24863305  0.62751446    -0.37500
N2532       N  0.57677574  0.19941473  0.48550346    -0.37500
C2533       C  0.94000781  0.37842760  0.80019703    -0.04200
C2534       C  0.94863324  0.37407445  0.82465855    -0.01300
C2535       C  0.92742693  0.36586602  0.84537792     0.03700
C2536       C  0.89642654  0.35922830  0.84124920    -0.04200
C2537       C  0.88677084  0.35938069  0.81595226    -0.01300
C2538       C  0.90908248  0.37122583  0.79590454     0.03700
C2539       C  0.97972102  0.37915659  0.82878233     0.38300
C2540       C  0.85377795  0.34581635  0.81015857     0.38300
C2541       C  0.90028295  0.37605897  0.77081562     0.36800
C2542       C  0.93811952  0.36520992  0.87092214     0.36800
N2543       N  0.89379468  0.38043467  0.75077067    -0.38100
N2544       N  0.94689459  0.36461871  0.89117284    -0.38100
N2545       N  0.82752782  0.33453463  0.80497824    -0.37500
N2546       N  0.00436713  0.38293062  0.83219730    -0.37500
C2547       C  0.56850230  0.45524370  0.79932763    -0.04200
C2548       C  0.59896571  0.46011142  0.79723243    -0.01300
C2549       C  0.61892688  0.47054744  0.81850024     0.03700
C2550       C  0.60844856  0.47611061  0.84189683    -0.04200
C2551       C  0.57761780  0.47024695  0.84420109    -0.01300
C2552       C  0.55808368  0.46095370  0.82271645     0.03700
C2553       C  0.61018407  0.45536800  0.77298017     0.38300
C2554       C  0.56521927  0.97179278  0.86898720     0.38300
C2555       C  0.52690215  0.95641355  0.82494541     0.36800
C2556       C  0.64979827  0.47448315  0.81644260     0.36800
N2557       N  0.50210067  0.95291495  0.82669191    -0.38100
N2558       N  0.67423323  0.47721703  0.81436005    -0.38100
N2559       N  0.55471631  0.97220467  0.88871577    -0.37500
N2560       N  0.61947808  0.45198396  0.75365558    -0.37500
C2561       C  0.57071907  0.45395554  0.68815621    -0.04200
C2562       C  0.59264598  0.44457573  0.68389756    -0.01300
C2563       C  0.61710464  0.46016919  0.66581666     0.03700
C2564       C  0.62031318  0.48552152  0.65212010    -0.04200
C2565       C  0.59693182  0.49289916  0.65426764    -0.01300
C2566       C  0.57256183  0.47766983  0.67246622     0.03700
C2567       C  0.59107699  0.41947777  0.69834310     0.38300
C2568       C  0.59728496  0.01534598  0.63695924     0.38300
C2569       C  0.54886162  0.98591261  0.67402920     0.36800
C2570       C  0.63944414  0.45040968  0.66179452     0.36800
N2571       N  0.52961571  0.99205598  0.67492193    -0.38100
N2572       N  0.65694709  0.44224971  0.65878298    -0.38100
N2573       N  0.59730256  0.03297702  0.62302888    -0.37500
N2574       N  0.59009664  0.39946063  0.70962877    -0.37500
C2575       C  0.88958363  0.35521929  0.65581734    -0.04200
C2576       C  0.92036778  0.37879366  0.64900361    -0.01300
C2577       C  0.94498025  0.38775305  0.66625031     0.03700
C2578       C  0.93869784  0.37416002  0.69068161    -0.04200
C2579       C  0.90875139  0.34833422  0.69643165    -0.01300
C2580       C  0.88420920  0.33863075  0.67879620     0.03700
C2581       C  0.92708894  0.39393339  0.62431280     0.38300
C2582       C  0.90317462  0.33193488  0.72041179     0.38300
C2583       C  0.85359798  0.31152799  0.68411059     0.36800
C2584       C  0.97708025  0.40933140  0.65811948     0.36800
N2585       N  0.82925495  0.28967812  0.68819391    -0.38100
N2586       N  0.50249558  0.42559950  0.65069125    -0.38100
N2587       N  0.89870045  0.31869439  0.73947980    -0.37500
N2588       N  0.93362304  0.40678589  0.60489907    -0.37500
C2589       C  0.55900452  0.13022312  0.80262696    -0.04200
C2590       C  0.54049172  0.11091096  0.82321240    -0.01300
C2591       C  0.52876244  0.12204611  0.84233887     0.03700
C2592       C  0.53045429  0.15041866  0.83915490    -0.04200
C2593       C  0.54758688  0.16925457  0.81802744    -0.01300
C2594       C  0.56253188  0.15965978  0.80032194     0.03700
C2595       C  0.53352185  0.07952527  0.82515554     0.38300
C2596       C  0.55001479  0.19866108  0.81454197     0.38300
C2597       C  0.58047123  0.17978289  0.77915391     0.36800
C2598       C  0.01748774  0.10546682  0.86637474     0.36800
N2599       N  0.59482889  0.19608543  0.76238062    -0.38100
N2600       N  0.00948703  0.09252034  0.88574805    -0.38100
N2601       N  0.55199474  0.22214867  0.81170466    -0.37500
N2602       N  0.02779102  0.05442774  0.82675313    -0.37500
C2603       C  0.64702840  0.04343495  0.84983291    -0.04200
C2604       C  0.62633776  0.05382962  0.85530447    -0.01300
C2605       C  0.62241379  0.07217186  0.83740361     0.03700
C2606       C  0.63763011  0.07874236  0.81340918    -0.04200
C2607       C  0.66168906  0.07239690  0.80948786    -0.01300
C2608       C  0.66666043  0.05506671  0.82787741     0.03700
C2609       C  0.60921888  0.04611411  0.87936614     0.38300
C2610       C  0.68167309  0.08429084  0.78691533     0.38300
C2611       C  0.69246109  0.05000401  0.82464370     0.36800
C2612       C  0.60543502  0.08699011  0.84466249     0.36800
N2613       N  0.71345234  0.04648826  0.82227784    -0.38100
N2614       N  0.59330726  0.09992952  0.85139741    -0.38100
N2615       N  0.69794430  0.09417468  0.76908353    -0.37500
N2616       N  0.59510201  0.04044280  0.89834521    -0.37500
C2617       C  0.64575942  0.07494752  0.70287381    -0.04200
C2618       C  0.65349592  0.08915383  0.67853004    -0.01300
C2619       C  0.66371767  0.07754278  0.65852817     0.03700
C2620       C  0.66733206  0.05207044  0.66279973    -0.04200
C2621       C  0.66346907  0.04064958  0.68815417    -0.01300
C2622       C  0.65120080  0.05088071  0.70768513     0.03700
C2623       C  0.64925799  0.11479175  0.67360076     0.38300
C2624       C  0.67320341  0.51922251  0.69451275     0.38300
C2625       C  0.64407448  0.03655324  0.73276714     0.36800
C2626       C  0.66942171  0.09150646  0.63341247     0.36800
N2627       N  0.63815841  0.02505890  0.75276702    -0.38100
N2628       N  0.67406862  0.10344781  0.61369051    -0.38100
N2629       N  0.68131246  0.50251817  0.70014645    -0.37500
N2630       N  0.64595882  0.13528308  0.66971260    -0.37500
C2631       C  0.54479616  0.13924463  0.64932389    -0.04200
C2632       C  0.53560189  0.10839769  0.65414474    -0.01300
C2633       C  0.54664716  0.10067355  0.67592119     0.03700
C2634       C  0.57002465  0.12410821  0.69177897    -0.04200
C2635       C  0.58232294  0.15537814  0.68458574    -0.01300
C2636       C  0.56969814  0.16278729  0.66368499     0.03700
C2637       C  0.51536545  0.08460535  0.63614900     0.38300
C2638       C  0.60730350  0.18055332  0.69898635     0.38300
C2639       C  0.08210762  0.19496245  0.65755592     0.36800
C2640       C  0.53279752  0.06833572  0.68202347     0.36800
N2641       N  0.09269095  0.22075502  0.65278800    -0.38100
N2642       N  0.52098664  0.04247278  0.68708607    -0.38100
N2643       N  0.12736902  0.20088216  0.71015024    -0.37500
N2644       N  0.49966528  0.06566642  0.62162170    -0.37500
C2645       C  0.93702376  0.06935231  0.80496210    -0.04200
C2646       C  0.93527585  0.06222165  0.83125716    -0.01300
C2647       C  0.94639576  0.08591378  0.84969960     0.03700
C2648       C  0.96100670  0.11698381  0.84180927    -0.04200
C2649       C  0.95886259  0.12353584  0.81597038    -0.01300
C2650       C  0.94604408  0.09961590  0.79772641     0.03700
C2651       C  0.92038703  0.03043741  0.83954223     0.38300
C2652       C  0.46862258  0.15469740  0.80843040     0.38300
C2653       C  0.94051658  0.10585147  0.77193435     0.36800
C2654       C  0.94244573  0.07833302  0.87673553     0.36800
N2655       N  0.43537401  0.11093662  0.75161647    -0.38100
N2656       N  0.93899119  0.07231245  0.89832000    -0.38100
N2657       N  0.47600841  0.17947478  0.80241976    -0.37500
N2658       N  0.90794110  0.00523705  0.84676621    -0.37500
C2659       C  0.88330825  0.44213470  0.81100308    -0.04200
C2660       C  0.90679662  0.44458866  0.82775778    -0.01300
C2661       C  0.89894093  0.42289196  0.84757737     0.03700
C2662       C  0.86781502  0.39779862  0.85062387    -0.04200
C2663       C  0.84381713  0.39729057  0.83601058    -0.01300
C2664       C  0.85148442  0.41922605  0.81628876     0.03700
C2665       C  0.93913818  0.47012253  0.82548571     0.38300
C2666       C  0.81114824  0.37354213  0.84042329     0.38300
C2667       C  0.82638555  0.41734616  0.80111670     0.36800
C2668       C  0.92292916  0.42682639  0.86531660     0.36800
N2669       N  0.80624786  0.41575694  0.78911067    -0.38100
N2670       N  0.94216508  0.43027536  0.87946652    -0.38100
N2671       N  0.78487331  0.35494983  0.84354316    -0.37500
N2672       N  0.96485998  0.49060551  0.82382863    -0.37500
C2673       C  0.94464066  0.06761917  0.69595695    -0.04200
C2674       C  0.93197401  0.06103107  0.67113027    -0.01300
C2675       C  0.94791970  0.08230129  0.65091302     0.03700
C2676       C  0.97455468  0.11199186  0.65594374    -0.04200
C2677       C  0.98384166  0.11993598  0.68163290    -0.01300
C2678       C  0.97129628  0.09707146  0.70088744     0.03700
C2679       C  0.90345164  0.03171359  0.66605747     0.38300
C2680       C  0.50537205  0.15182732  0.68854285     0.38300
C2681       C  0.48671810  0.10380691  0.72546064     0.36800
C2682       C  0.93752094  0.07274171  0.62493201     0.36800
N2683       N  0.49955331  0.10920061  0.74482248    -0.38100
N2684       N  0.92886808  0.06450898  0.60435801    -0.38100
N2685       N  0.52207204  0.17729137  0.69432493    -0.37500
N2686       N  0.88058101  0.00842189  0.66203789    -0.37500
C2687       C  0.85700719  0.38928811  0.65978351    -0.04200
C2688       C  0.84494994  0.38202950  0.68502111    -0.01300
C2689       C  0.85735417  0.40486920  0.70427882     0.03700
C2690       C  0.88222237  0.43522537  0.69861472    -0.04200
C2691       C  0.89396667  0.44255523  0.67326016    -0.01300
C2692       C  0.88030045  0.42010967  0.65375033     0.03700
C2693       C  0.81869313  0.35137048  0.69092859     0.38300
C2694       C  0.92022625  0.47317425  0.66719451     0.38300
C2695       C  0.88873690  0.42919612  0.62724877     0.36800
C2696       C  0.84522530  0.39667280  0.73019950     0.36800
N2697       N  0.89493959  0.43674213  0.60607499    -0.38100
N2698       N  0.83558804  0.38958304  0.75086070    -0.38100
N2699       N  0.94151964  0.99743459  0.66236759    -0.37500
N2700       N  0.79740516  0.32710348  0.69573039    -0.37500
C2701       C  0.97427904  0.16718560  0.57771271    -0.04200
C2702       C  0.95801710  0.14473365  0.55860888    -0.01300
C2703       C  0.93619311  0.14632341  0.54268086     0.03700
C2704       C  0.92898682  0.16942105  0.54657772    -0.04200
C2705       C  0.94468873  0.19143874  0.56620324    -0.01300
C2706       C  0.96702962  0.19020034  0.58169380     0.03700
C2707       C  0.96178585  0.11844852  0.55662140     0.38300
C2708       C  0.93656122  0.21444241  0.57161592     0.38300
C2709       C  0.48037839  0.21101988  0.60318336     0.36800
C2710       C  0.92151988  0.12427345  0.52213094     0.36800
N2711       N  0.49016563  0.22749229  0.62049278    -0.38100
N2712       N  0.91009625  0.10658920  0.50575525    -0.38100
N2713       N  0.93000958  0.23271448  0.57592222    -0.37500
N2714       N  0.96414213  0.09706556  0.55520546    -0.37500
C2715       C  0.84644034  0.02640225  0.43325904    -0.04200
C2716       C  0.87317411  0.05670747  0.43561894    -0.01300
C2717       C  0.87014164  0.08020403  0.44716544     0.03700
C2718       C  0.84128191  0.07271768  0.45892616    -0.04200
C2719       C  0.81834846  0.04112882  0.46271564    -0.01300
C2720       C  0.82310141  0.01823400  0.45234254     0.03700
C2721       C  0.90429733  0.06275339  0.42924074     0.38300
C2722       C  0.79101001  0.03192022  0.47890499     0.38300
C2723       C  0.81455282  0.49200958  0.46864205     0.36800
C2724       C  0.89634216  0.11180891  0.44588766     0.36800
N2725       N  0.80818030  0.47185952  0.48255615    -0.38100
N2726       N  0.91759516  0.13687315  0.44472199    -0.38100
N2727       N  0.76911370  0.02461065  0.49169997    -0.37500
N2728       N  0.92914266  0.06752089  0.42436531    -0.37500
C2729       C  0.76610893  0.08846340  0.54054841    -0.04200
C2730       C  0.73912700  0.09033996  0.54513088    -0.01300
C2731       C  0.71694003  0.07180726  0.56402677     0.03700
C2732       C  0.72347400  0.05460716  0.58117032    -0.04200
C2733       C  0.75235021  0.05585163  0.57880815    -0.01300
C2734       C  0.77258653  0.07099575  0.55763619     0.03700
C2735       C  0.73513448  0.11300017  0.53179847     0.38300
C2736       C  0.76243508  0.04340623  0.59875311     0.38300
C2737       C  0.79951748  0.06783494  0.55327048     0.36800
C2738       C  0.68710297  0.07025242  0.56553673     0.36800
N2739       N  0.82084623  0.06508797  0.54968481    -0.38100
N2740       N  0.66314855  0.06872242  0.56624374    -0.38100
N2741       N  0.77190669  0.53474956  0.61465549    -0.37500
N2742       N  0.73229216  0.13160221  0.52175321    -0.37500
C2743       C  0.90509374  0.25659229  0.46021414    -0.04200
C2744       C  0.90631685  0.28447683  0.45662587    -0.01300
C2745       C  0.93033555  0.30776601  0.44133408     0.03700
C2746       C  0.95104787  0.30201396  0.42696201    -0.04200
C2747       C  0.94776872  0.27277167  0.42900525    -0.01300
C2748       C  0.92591966  0.25079046  0.44655458     0.03700
C2749       C  0.88227545  0.28886163  0.46796881     0.38300
C2750       C  0.96447287  0.26381184  0.41181027     0.38300
C2751       C  0.92384461  0.22150490  0.44992847     0.36800
C2752       C  0.93342889  0.33766275  0.44047755     0.36800
N2753       N  0.92195439  0.19808007  0.45282955    -0.38100
N2754       N  0.93568999  0.36144314  0.44067715    -0.38100
N2755       N  0.97643112  0.25492232  0.39823379    -0.37500
N2756       N  0.86286654  0.29235542  0.47649266    -0.37500
C2757       C  0.69967196  0.17270203  0.42022658    -0.04200
C2758       C  0.73055994  0.19855071  0.42231555    -0.01300
C2759       C  0.75341108  0.19674397  0.43689449     0.03700
C2760       C  0.74541561  0.16922938  0.45013472    -0.04200
C2761       C  0.71358657  0.14442768  0.44988916    -0.01300
C2762       C  0.69130161  0.14584877  0.43456902     0.03700
C2763       C  0.73972570  0.22628588  0.40784549     0.38300
C2764       C  0.70342662  0.11661958  0.46475831     0.38300
C2765       C  0.66006269  0.11849834  0.43221266     0.36800
C2766       C  0.78571966  0.22242070  0.43634857     0.36800
N2767       N  0.63534627  0.09653264  0.43034733    -0.38100
N2768       N  0.81152006  0.24288923  0.43567854    -0.38100
N2769       N  0.69478402  0.09413511  0.47627369    -0.37500
N2770       N  0.74757779  0.24868865  0.39647427    -0.37500
C2771       C  0.83224731  0.25513800  0.54731320    -0.04200
C2772       C  0.80501596  0.24574128  0.56237304    -0.01300
C2773       C  0.80375585  0.26678386  0.57949576     0.03700
C2774       C  0.82874891  0.29802204  0.58027744    -0.04200
C2775       C  0.85479072  0.30773801  0.56352509    -0.01300
C2776       C  0.85691396  0.28641957  0.54776010     0.03700
C2777       C  0.77956382  0.21372784  0.56202990     0.38300
C2778       C  0.88114683  0.33931120  0.56393519     0.38300
C2779       C  0.88589302  0.29652951  0.53345807     0.36800
C2780       C  0.77854743  0.25511966  0.59827861     0.36800
N2781       N  0.90940606  0.30487537  0.52267960    -0.38100
N2782       N  0.75842106  0.24468943  0.61335286    -0.38100
N2783       N  0.90279469  0.36416421  0.56366460    -0.37500
N2784       N  0.75926005  0.18817722  0.56171344    -0.37500
C2785       C  0.73643794  0.07396932  0.95989070    -0.04200
C2786       C  0.74258404  0.05312134  0.94733713    -0.01300
C2787       C  0.71990275  0.03074960  0.93083819     0.03700
C2788       C  0.69010477  0.02755931  0.92874249    -0.04200
C2789       C  0.68275955  0.04570393  0.94441826    -0.01300
C2790       C  0.70621994  0.06968379  0.95903020     0.03700
C2791       C  0.77326523  0.05661626  0.94948582     0.38300
C2792       C  0.65172824  0.04157740  0.94388639     0.38300
C2793       C  0.69981199  0.09131293  0.97167323     0.36800
C2794       C  0.72891336  0.01393694  0.91407353     0.36800
N2795       N  0.69472873  0.10876142  0.98132093    -0.38100
N2796       N  0.73736892  0.00140468  0.90083825    -0.38100
N2797       N  0.62708770  0.03854099  0.94402724    -0.37500
N2798       N  0.79770132  0.05938899  0.95135283    -0.37500
C2799       C  0.75080872  0.15351827  0.04443390    -0.04200
C2800       C  0.76117790  0.18165984  0.05722700    -0.01300
C2801       C  0.74136787  0.18430071  0.07528221     0.03700
C2802       C  0.71001526  0.15971234  0.07898399    -0.04200
C2803       C  0.69946215  0.13183834  0.06545299    -0.01300
C2804       C  0.72019022  0.12834061  0.04923629     0.03700
C2805       C  0.79259554  0.20773685  0.05212131     0.38300
C2806       C  0.66709945  0.10655763  0.06821129     0.38300
C2807       C  0.71032020  0.09850515  0.03817252     0.36800
C2808       C  0.75403651  0.21160131  0.09099410     0.36800
N2809       N  0.70250008  0.07448067  0.02984857    -0.38100
N2810       N  0.76506299  0.23343790  0.10360838    -0.38100
N2811       N  0.64116032  0.08653106  0.07005070    -0.37500
N2812       N  0.81764880  0.22847272  0.04788682    -0.37500
C2813       C  0.92605097  0.17830740  0.95957295    -0.04200
C2814       C  0.95054380  0.17260497  0.96486126    -0.01300
C2815       C  0.96833182  0.16999462  0.94483889     0.03700
C2816       C  0.96506735  0.17679200  0.91934194    -0.04200
C2817       C  0.94202034  0.18429551  0.91405345    -0.01300
C2818       C  0.92232343  0.18447378  0.93380243     0.03700
C2819       C  0.95849511  0.17012625  0.99100958     0.38300
C2820       C  0.93803277  0.19126674  0.88798353     0.38300
C2821       C  0.89761320  0.19008992  0.92713871     0.36800
C2822       C  0.98790674  0.15751824  0.95046072     0.36800
N2823       N  0.87789996  0.19454320  0.92174010    -0.38100
N2824       N  0.00276963  0.14684409  0.95533863    -0.38100
N2825       N  0.43486834  0.19683406  0.86719533    -0.37500
N2826       N  0.96522109  0.16836479  0.01177173    -0.37500
C2827       C  0.81969707  0.06331225  0.04605957    -0.04200
C2828       C  0.83745707  0.05015445  0.03850397    -0.01300
C2829       C  0.83960404  0.02938280  0.05473952     0.03700
C2830       C  0.82012902  0.01748433  0.07665799    -0.04200
C2831       C  0.79888087  0.02720945  0.08235318    -0.01300
C2832       C  0.79909922  0.05055110  0.06745488     0.03700
C2833       C  0.85429838  0.05848680  0.01417239     0.38300
C2834       C  0.77872517  0.01514765  0.10484458     0.38300
C2835       C  0.77959263  0.06258165  0.07522214     0.36800
C2836       C  0.86515022  0.02410866  0.05061252     0.36800
N2837       N  0.76401293  0.07215139  0.08147487    -0.38100
N2838       N  0.88663227  0.52159582  0.04719245    -0.38100
N2839       N  0.76268185  0.00578721  0.12283667    -0.37500
N2840       N  0.86751959  0.06496106  0.99470266    -0.37500
C2841       C  0.93246267  0.24963123  0.05238041    -0.04200
C2842       C  0.94701053  0.27945143  0.04163356    -0.01300
C2843       C  0.96144648  0.30537137  0.05755763     0.03700
C2844       C  0.96659419  0.30207510  0.08347053    -0.04200
C2845       C  0.95352232  0.27236966  0.09418275    -0.01300
C2846       C  0.93555836  0.24619076  0.07892388     0.03700
C2847       C  0.94816963  0.28355488  0.01412072     0.38300
C2848       C  0.95703393  0.26864845  0.12123771     0.38300
C2849       C  0.91908141  0.21600520  0.09106672     0.36800
C2850       C  0.96708226  0.33454683  0.04803139     0.36800
N2851       N  0.90590572  0.19204868  0.10089507    -0.38100
N2852       N  0.47009925  0.35727860  0.04043682    -0.38100
N2853       N  0.95947310  0.26556285  0.14283974    -0.37500
N2854       N  0.94953155  0.28656908  0.99212463    -0.37500
C2855       C  0.84734302  0.30012945  0.92085351    -0.04200
C2856       C  0.82616692  0.26853392  0.91628471    -0.01300
C2857       C  0.82588451  0.24608556  0.93225727     0.03700
C2858       C  0.84639747  0.25496196  0.95336697    -0.02800
C2859       C  0.86797705  0.28657554  0.95764821    -0.01300
C2860       C  0.86962960  0.30889237  0.94058388     0.03700
C2861       C  0.80616926  0.25898321  0.89403171     0.38300
C2862       C  0.88697199  0.29643580  0.98044621     0.38300
C2863       C  0.89570913  0.34052352  0.94223330     0.36800
C2864       C  0.80494541  0.21366904  0.92641905     0.36800
N2865       N  0.91687930  0.36561957  0.94339731    -0.38100
N2866       N  0.78829396  0.18787314  0.92159747    -0.38100
N2867       N  0.90161153  0.30482541  0.99893459    -0.37500
N2868       N  0.79053133  0.25104076  0.87607621    -0.37500
O2869       O  0.85514114  0.61127657  0.02589365    -0.79700
O2870       O  0.86599452  0.72708515  0.97630590    -0.64400
O2871       O  0.84997437  0.66311855  0.02409532    -1.11000
C2872       C  0.76229107  0.60253858  0.97089171     1.07200
O2873       O  0.81634147  0.71235697  0.98075624    -0.77600
O2874       O  0.76937767  0.66204059  0.00213091    -0.65200
Ni2875     Ni  0.88135081  0.65461236  0.03294315     1.34900
C2876       C  0.77050497  0.65174037  0.02381300     0.85900
O2877       O  0.89337894  0.72542887  0.02072848    -0.78200
O2878       O  0.90935414  0.69715657  0.04136898    -0.88400
C2879       C  0.84323746  0.73075107  0.97128489     0.85500
O2880       O  0.90076993  0.66006519  0.00022970    -0.66600
O2881       O  0.76729313  0.62779312  0.96138937    -0.85900
C2882       C  0.90407898  0.67641143  0.98083405     0.86300
C2883       C  0.91075327  0.72248549  0.03682694     1.07900
H2884       H  0.83259405  0.65798733  0.96727002     0.39700
O2885       O  0.82477966  0.66303703  0.98230251    -1.08600
O2886       O  0.78760716  0.64057130  0.02844059    -0.65200
Ni2887     Ni  0.81390004  0.63146571  0.00715225     1.26300
O2888       O  0.88958774  0.69087237  0.97908524    -0.65500
O2889       O  0.77790956  0.60064830  0.98913006    -0.77800
C2890       C  0.82722975  0.59318750  0.03412830     0.85700
O2891       O  0.80672563  0.60061433  0.03187915    -0.64900
Ni2892     Ni  0.79280094  0.66995659  0.97119744     1.27400
Ni2893     Ni  0.85978473  0.69537443  0.00036100     1.26100
H2894       H  0.84336309  0.66803158  0.03990213     0.40200
O2895       O  0.91087236  0.69688603  0.52304121    -0.79700
O2896       O  0.79385041  0.68673955  0.47301757    -0.64400
O2897       O  0.84768350  0.67853579  0.51965747    -1.11000
C2898       C  0.83526231  0.59700249  0.46825729     1.07200
O2899       O  0.76629761  0.63797963  0.45989961    -0.77600
O2900       O  0.77338292  0.60582025  0.49765635    -0.65200
Ni2901     Ni  0.88528485  0.71348054  0.53195023     1.34900
C2902       C  0.78669582  0.60455748  0.51779905     0.85900
O2903       O  0.81921687  0.71364304  0.51782382    -0.78200
O2904       O  0.86287103  0.73299332  0.54172558    -0.88400
C2905       C  0.77014645  0.66465094  0.46188235     0.85500
O2906       O  0.89881835  0.73603661  0.50098541    -0.66600
O2907       O  0.80818753  0.59285238  0.46450681    -0.85900
C2908       C  0.88508950  0.73518596  0.48057028     0.86300
C2909       C  0.83803593  0.73216743  0.53478401     1.07900
H2910       H  0.83969810  0.66500082  0.46088206     0.39700
O2911       O  0.82674452  0.65471150  0.47574351    -1.08600
O2912       O  0.81646390  0.61653886  0.51919706    -0.65200
Ni2913     Ni  0.85210731  0.64929426  0.50016336     1.26300
O2914       O  0.85587771  0.71686874  0.47676261    -0.65500
O2915       O  0.85665785  0.62054470  0.47976388    -0.77800
C2916       C  0.90498351  0.67084766  0.53075379     0.85700
O2917       O  0.87887842  0.64684771  0.52513964    -0.64900
Ni2918     Ni  0.78978366  0.61805466  0.46398274     1.27400
Ni2919     Ni  0.82188686  0.68392975  0.49628515     1.26100
H2920       H  0.83491276  0.66843959  0.53466627     0.40200
O2921       O  0.90265623  0.52996339  0.72338595    -0.73300
O2922       O  0.87361318  0.97093178  0.77904703    -0.73300
O2923       O  0.90046906  0.53273872  0.77535798    -0.73400
O2924       O  0.87397479  0.96730864  0.72684555    -0.73400
O2925       O  0.92172073  0.97373887  0.72652874    -0.73300
O2926       O  0.94698465  0.53668634  0.77835688    -0.73300
O2927       O  0.91998274  0.97468303  0.77857694    -0.73300
O2928       O  0.95019116  0.53624098  0.72642318    -0.73400
Ni2929     Ni  0.88595533  0.49998314  0.75102209     1.25400
Ni2930     Ni  0.93636329  0.50548925  0.75248789     1.25400
C2931       C  0.93166135  0.54334637  0.71624021     0.88900
C2932       C  0.89250957  0.96351503  0.78835905     0.88800
C2933       C  0.92772641  0.54502251  0.78525983     0.88900
C2934       C  0.89332018  0.95992654  0.71840012     0.89000
O2935       O  0.60316722  0.56520250  0.73102641    -0.73300
O2936       O  0.56117776  0.59201935  0.77669252    -0.73300
O2937       O  0.56610193  0.58911439  0.72512241    -0.73400
O2938       O  0.59852949  0.56832662  0.78272763    -0.73400
O2939       O  0.64156969  0.61547979  0.78231093    -0.73300
O2940       O  0.60841961  0.63622139  0.72492847    -0.73300
O2941       O  0.60373476  0.63925629  0.77682887    -0.73300
O2942       O  0.64555941  0.61273578  0.73040437    -0.73400
Ni2943     Ni  0.58078494  0.57701094  0.75395696     1.25400
Ni2944     Ni  0.62631085  0.62762890  0.75369315     1.25400
C2945       C  0.63096039  0.58469410  0.72271345     0.88900
C2946       C  0.57539845  0.62005705  0.78435454     0.88800
C2947       C  0.58205267  0.61609356  0.71512150     0.88900
C2948       C  0.62544164  0.58824219  0.79180139     0.89000
O2949       O  0.53293765  0.95520148  0.76947026    -0.73300
O2950       O  0.97113133  0.91600268  0.71771585    -0.73300
O2951       O  0.97012806  0.91721076  0.76937197    -0.73400
O2952       O  0.53407400  0.95418040  0.71799959    -0.73400
O2953       O  0.53788750  0.91266398  0.71751250    -0.73300
O2954       O  0.97698167  0.87731516  0.77170321    -0.73300
O2955       O  0.97492479  0.87427360  0.72000611    -0.73300
O2956       O  0.53991869  0.91532642  0.76929180    -0.73400
Ni2957     Ni  0.50184817  0.93708773  0.74355790     1.25400
Ni2958     Ni  0.50767661  0.89343196  0.74465224     1.25400
C2959       C  0.54637595  0.94150099  0.77800758     0.88900
C2960       C  0.96274189  0.88871720  0.71052724     0.88800
C2961       C  0.96352805  0.89155219  0.77933763     0.88900
C2962       C  0.54630214  0.93945638  0.70885926     0.89000
C2963       C  0.52701877  0.67645776  0.59382609     0.03400
C2964       C  0.99396771  0.66276436  0.59649606     0.03400
C2965       C  0.97801055  0.64251525  0.61704276    -0.17100
C2966       C  0.99347586  0.63410295  0.63447749     0.03400
C2967       C  0.52644372  0.64664251  0.63110886     0.03400
C2968       C  0.54244395  0.66739749  0.61074301    -0.17100
H2969       H  0.56745497  0.67694639  0.60810685     0.05500
H2970       H  0.95295526  0.63299363  0.61936093     0.05500
C2971       C  0.69973048  0.53585875  0.60140585     0.03400
C2972       C  0.67649744  0.00462335  0.59696221     0.03400
C2973       C  0.65092237  0.98945926  0.61367690    -0.17100
C2974       C  0.64811086  0.00405182  0.63526129     0.03400
C2975       C  0.67131700  0.53525995  0.64051930     0.03400
C2976       C  0.69699117  0.55079364  0.62324988    -0.17100
H2977       H  0.71450896  0.57486989  0.62638006     0.05500
H2978       H  0.63312295  0.96552224  0.61010521     0.05500
C2979       C  0.83412321  0.83998985  0.90599210     0.03400
C2980       C  0.84973209  0.82367717  0.90248118     0.03400
C2981       C  0.86870657  0.82974862  0.88075086    -0.17100
C2982       C  0.87468980  0.85325103  0.86340502     0.03400
C2983       C  0.86099004  0.87132180  0.86788083     0.03400
C2984       C  0.84071382  0.86417162  0.88904084    -0.17100
H2985       H  0.82929276  0.87710928  0.89208100     0.05500
H2986       H  0.87919583  0.81600569  0.87742472     0.05500
C2987       C  0.83178653  0.81889034  0.60191630     0.03400
C2988       C  0.81539316  0.83474629  0.60366750     0.03400
C2989       C  0.82334358  0.85705951  0.62298007    -0.17100
C2990       C  0.84746117  0.86419646  0.64033683     0.03400
C2991       C  0.86309151  0.84782891  0.63878075     0.03400
C2992       C  0.85482873  0.82521847  0.62011810    -0.17100
H2993       H  0.86764520  0.81340613  0.61898830     0.05500
H2994       H  0.81130833  0.86962286  0.62397997     0.05500
C2995       C  0.67006624  0.51245600  0.90612222     0.03400
C2996       C  0.65200188  0.98007867  0.90218312     0.03400
C2997       C  0.63189517  0.96891759  0.88100855    -0.17100
C2998       C  0.63008182  0.98905094  0.86379400     0.03400
C2999       C  0.64870766  0.52118416  0.86740421     0.03400
C3000       C  0.66857200  0.53241823  0.88836378    -0.17100
H3001       H  0.68266988  0.55715721  0.89121797     0.05500
H3002       H  0.61768100  0.94428424  0.87773550     0.05500
C3003       C  0.98321723  0.67294529  0.89782111     0.03400
C3004       C  0.51679571  0.69045064  0.89548706     0.03400
C3005       C  0.53108584  0.68414618  0.87476934    -0.17100
C3006       C  0.51360875  0.65971305  0.85778570     0.03400
C3007       C  0.98042816  0.64263240  0.86002522     0.03400
C3008       C  0.96575872  0.64962116  0.87970919    -0.17100
H3009       H  0.94033206  0.63602711  0.88139344     0.05500
H3010       H  0.55648536  0.69729552  0.87274233     0.05500
O3011       O  0.73304293  0.86619181  0.53843628    -0.79700
O3012       O  0.62334057  0.86419086  0.47409935    -0.64400
O3013       O  0.67496890  0.85485002  0.52272486    -1.11000
C3014       C  0.65756985  0.77497579  0.46407712     1.07200
O3015       O  0.58973530  0.81440935  0.47905301    -0.77600
O3016       O  0.59817613  0.77031128  0.49774015    -0.65200
Ni3017     Ni  0.71535803  0.89032480  0.52921406     1.34900
C3018       C  0.61002350  0.77147417  0.51934538     0.85900
O3019       O  0.65118168  0.89343684  0.51854342    -0.78200
O3020       O  0.70283221  0.91930623  0.52176297    -0.88400
C3021       C  0.59638008  0.84029710  0.47017288     0.85500
O3022       O  0.72734004  0.89136543  0.49470115    -0.66600
O3023       O  0.63431259  0.77629955  0.45584190    -0.85900
C3024       C  0.71540312  0.89753769  0.47606748     0.86300
C3025       C  0.67656478  0.91645815  0.52670538     1.07900
H3026       H  0.66431589  0.83791587  0.46505815     0.39700
O3027       O  0.65113477  0.82928879  0.48006022    -1.08600
O3028       O  0.63851988  0.79163193  0.52462058    -0.65200
Ni3029     Ni  0.67448885  0.82173557  0.50415263     1.26300
O3030       O  0.68694323  0.89149543  0.47691482    -0.65500
O3031       O  0.67366380  0.78955278  0.48372323    -0.77800
C3032       C  0.72502402  0.83803031  0.53872286     0.85700
O3033       O  0.70015876  0.81670422  0.52827213    -0.64900
Ni3034     Ni  0.61268716  0.79586200  0.46792128     1.27400
Ni3035     Ni  0.65068112  0.86155082  0.49828896     1.26100
H3036       H  0.66322974  0.84737052  0.53875344     0.40200
O3037       O  0.69159956  0.89851074  0.96877406    -0.79700
O3038       O  0.68793506  0.79134358  0.02880524    -0.64400
O3039       O  0.67602924  0.83721553  0.97676416    -1.11000
C3040       C  0.59017119  0.81712749  0.02958761     1.07200
O3041       O  0.63790253  0.75383499  0.02659693    -0.77600
O3042       O  0.60053454  0.76114208  0.99395498    -0.65200
Ni3043     Ni  0.71070536  0.87451531  0.96304647     1.34900
C3044       C  0.59854170  0.77540182  0.97491723     0.85900
O3045       O  0.71808178  0.81647303  0.98472077    -0.78200
O3046       O  0.73249780  0.85369582  0.95518649    -0.88400
C3047       C  0.66603127  0.76368586  0.03353073     0.85500
O3048       O  0.73364886  0.89113976  0.99394029    -0.66600
O3049       O  0.58714605  0.79071347  0.03191419    -0.85900
C3050       C  0.73123666  0.88058407  0.01637431     0.86300
C3051       C  0.73424849  0.83193354  0.96532843     1.07900
H3052       H  0.65618419  0.82552531  0.03532412     0.39700
O3053       O  0.64915687  0.81407393  0.01957454    -1.08600
O3054       O  0.61171338  0.80466476  0.97442398    -0.65200
Ni3055     Ni  0.64328564  0.83845627  0.99513695     1.26300
O3056       O  0.71235694  0.85221974  0.02221426    -0.65500
O3057       O  0.61149046  0.83870353  0.01567295    -0.77800
C3058       C  0.66368695  0.89075321  0.96334455     0.85700
O3059       O  0.64030427  0.86494714  0.97057693    -0.64900
Ni3060     Ni  0.61415047  0.77425073  0.02804415     1.27400
Ni3061     Ni  0.68378010  0.81543199  0.00269235     1.26100
H3062       H  0.66687174  0.82338077  0.96245785     0.40200
O3063       O  0.96270077  0.58845559  0.22027024    -0.73300
O3064       O  0.52812126  0.62572169  0.27038775    -0.73300
O3065       O  0.52664604  0.62252032  0.21812776    -0.73400
O3066       O  0.96419699  0.59027737  0.27288335    -0.73400
O3067       O  0.96548226  0.54732275  0.27273520    -0.73300
O3068       O  0.52898006  0.58020509  0.22062860    -0.73300
O3069       O  0.52933430  0.58264500  0.27254739    -0.73300
O3070       O  0.96512362  0.54598087  0.22055636    -0.73400
Ni3071     Ni  0.99529873  0.60825272  0.24536090     1.25400
Ni3072     Ni  0.99726362  0.56255044  0.24664847     1.25400
C3073       C  0.95350538  0.56144716  0.21178622     0.88900
C3074       C  0.53928278  0.61034765  0.27993517     0.88800
C3075       C  0.53809729  0.60636501  0.21032844     0.88900
C3076       C  0.95495618  0.56341001  0.28219931     0.89000
O3077       O  0.89457922  0.93366343  0.27522532    -0.73300
O3078       O  0.93672479  0.90989852  0.22761190    -0.73300
O3079       O  0.90205505  0.93597179  0.22413088    -0.73400
O3080       O  0.92950579  0.90749257  0.27893925    -0.73400
O3081       O  0.88645118  0.86052025  0.27558667    -0.73300
O3082       O  0.85819496  0.88961148  0.22125010    -0.73300
O3083       O  0.89291016  0.86355652  0.22390508    -0.73300
O3084       O  0.85121925  0.88679745  0.27294206    -0.73400
Ni3085     Ni  0.91723817  0.92337971  0.25163570     1.25400
Ni3086     Ni  0.87057391  0.87339562  0.24836454     1.25400
C3087       C  0.86615188  0.91420170  0.28201279     0.88900
C3088       C  0.92146882  0.88313611  0.21745665     0.88800
C3089       C  0.87591067  0.91741912  0.21341729     0.88900
C3090       C  0.91263769  0.87940349  0.28620735     0.89000
C3091       C  0.81792475  0.97466126  0.40586624     0.03400
C3092       C  0.84211556  0.50657064  0.40947246     0.03400
C3093       C  0.86246408  0.52144512  0.38800487    -0.17100
C3094       C  0.86328891  0.50556303  0.36627129     0.03400
C3095       C  0.84140325  0.97359347  0.36443402     0.03400
C3096       C  0.81851098  0.95912606  0.38366313    -0.17100
H3097       H  0.80071517  0.93492127  0.38133149     0.05500
H3098       H  0.87823606  0.54611717  0.38758000     0.05500
O3099       O  0.58771504  0.96586341  0.27877715    -0.73300
O3100       O  0.63426425  0.53353347  0.23235122    -0.73300
O3101       O  0.62636533  0.52793613  0.28397551    -0.73400
O3102       O  0.59645119  0.97241333  0.22733790    -0.73400
O3103       O  0.55520712  0.97763817  0.22446062    -0.73300
O3104       O  0.58447539  0.53263979  0.28144820    -0.73300
O3105       O  0.59286860  0.53909754  0.22997690    -0.73300
O3106       O  0.54622487  0.97095979  0.27544130    -0.73400
Ni3107     Ni  0.61265067  0.99969595  0.25584680     1.25400
Ni3108     Ni  0.56822916  0.00527605  0.25278816     1.25400
C3109       C  0.55923054  0.95718302  0.28468809     0.88900
C3110       C  0.62075644  0.54686171  0.22307056     0.88800
C3111       C  0.61063240  0.53984638  0.29174064     0.88900
C3112       C  0.57130833  0.96643070  0.21597154     0.89000
C3113       C  0.81338915  0.96744841  0.09432058     0.03400
C3114       C  0.82631474  0.49980165  0.09591218     0.03400
C3115       C  0.84768563  0.51686739  0.11561424    -0.17100
C3116       C  0.85656920  0.50257523  0.13372881     0.03400
C3117       C  0.84308702  0.97032730  0.13205155     0.03400
C3118       C  0.82193042  0.95332883  0.11263108    -0.17100
H3119       H  0.81225113  0.92867697  0.11158787     0.05500
H3120       H  0.85797041  0.54160219  0.11650487     0.05500
C3121       C  0.67831512  0.67042116  0.39913749     0.03400
C3122       C  0.66161816  0.68608094  0.39842911     0.03400
C3123       C  0.63982463  0.67912003  0.37852527    -0.17100
C3124       C  0.63418572  0.65716818  0.35960946     0.03400
C3125       C  0.65103540  0.64196547  0.36058388     0.03400
C3126       C  0.67323284  0.64932621  0.37965289    -0.17100
H3127       H  0.68548582  0.63694087  0.38020606     0.05500
H3128       H  0.62688111  0.69079272  0.37788068     0.05500
C3129       C  0.67139972  0.67395255  0.09800457     0.03400
C3130       C  0.68971023  0.66013798  0.10010564     0.03400
C3131       C  0.68563793  0.64204271  0.12181363    -0.17100
C3132       C  0.66160096  0.63430825  0.13997125     0.03400
C3133       C  0.64121031  0.64567480  0.13644682     0.03400
C3134       C  0.64699783  0.66582156  0.11590822    -0.17100
H3135       H  0.63196728  0.67511019  0.11358415     0.05500
H3136       H  0.70081270  0.63291538  0.12401768     0.05500
C3137       C  0.97031478  0.82390761  0.40601828     0.03400
C3138       C  0.50381067  0.84101625  0.40458239     0.03400
C3139       C  0.51890092  0.86243248  0.38452058    -0.17100
C3140       C  0.50166313  0.86701027  0.36607235     0.03400
C3141       C  0.96852147  0.84964000  0.36744835     0.03400
C3142       C  0.95334263  0.82813165  0.38695393    -0.17100
H3143       H  0.92782521  0.81481112  0.38753842     0.05500
H3144       H  0.54437948  0.87586784  0.38336481     0.05500
C3145       C  0.98506906  0.82972703  0.09956076     0.03400
C3146       C  0.51773347  0.84986230  0.09576336     0.03400
C3147       C  0.53417655  0.87556547  0.11158011    -0.17100
C3148       C  0.51892188  0.88055392  0.13202364     0.03400
C3149       C  0.98616487  0.85974639  0.13619291     0.03400
C3150       C  0.96971195  0.83490603  0.11959166    -0.17100
H3151       H  0.94471439  0.81894523  0.12262915     0.05500
H3152       H  0.55928505  0.89095304  0.10869145     0.05500
C3153       C  0.54182388  0.93196937  0.30366071    -0.04200
C3154       C  0.54525187  0.90611565  0.30397102    -0.01300
C3155       C  0.53251144  0.88482561  0.32446888     0.03700
C3156       C  0.51829522  0.89049557  0.34552964    -0.04200
C3157       C  0.51685904  0.91735056  0.34567453    -0.01300
C3158       C  0.52455184  0.93542092  0.32351607     0.03700
C3159       C  0.55989028  0.90025681  0.28239834     0.38300
C3160       C  0.51113007  0.92846915  0.36936379     0.38300
C3161       C  0.51306801  0.95615185  0.32086472     0.36800
C3162       C  0.53483364  0.85766889  0.32402989     0.36800
N3163       N  0.50319258  0.47209781  0.31845598    -0.38100
N3164       N  0.53714994  0.83624875  0.32315654    -0.38100
N3165       N  0.50794371  0.93828319  0.38835751    -0.37500
N3166       N  0.57133011  0.89542572  0.26510481    -0.37500
C3167       C  0.56098412  0.94681308  0.19237525    -0.04200
C3168       C  0.53976065  0.94792190  0.17509871    -0.01300
C3169       C  0.52947646  0.92904021  0.15332275     0.03700
C3170       C  0.53763548  0.90675313  0.14970783    -0.04200
C3171       C  0.56098969  0.90740621  0.16514082    -0.01300
C3172       C  0.57285735  0.92748308  0.18625411     0.03700
C3173       C  0.52756940  0.96783331  0.17957994     0.38300
C3174       C  0.57187919  0.88642859  0.16007683     0.38300
C3175       C  0.59650314  0.92704601  0.20184345     0.36800
C3176       C  0.01057701  0.93264647  0.13437996     0.36800
N3177       N  0.61554584  0.92667243  0.21398802    -0.38100
N3178       N  0.99587875  0.93592550  0.11919514    -0.38100
N3179       N  0.58075367  0.86986920  0.15609471    -0.37500
N3180       N  0.01731813  0.98324502  0.18340603    -0.37500
C3181       C  0.62362126  0.56384765  0.31182553    -0.04200
C3182       C  0.60545841  0.56105712  0.33364020    -0.01300
C3183       C  0.61465683  0.58656632  0.34962526     0.03700
C3184       C  0.64252894  0.61486611  0.34422663    -0.04200
C3185       C  0.66299227  0.61638056  0.32464972    -0.01300
C3186       C  0.65348555  0.59092014  0.30836430     0.03700
C3187       C  0.57955077  0.53126453  0.34164358     0.38300
C3188       C  0.69387042  0.64390878  0.32144473     0.38300
C3189       C  0.67443544  0.59261296  0.28811279     0.36800
C3190       C  0.59630054  0.58313716  0.37248950     0.36800
N3191       N  0.69119158  0.59379423  0.27206446    -0.38100
N3192       N  0.58165825  0.57997347  0.39080169    -0.38100
N3193       N  0.71865601  0.66573888  0.31898864    -0.37500
N3194       N  0.55976149  0.00803758  0.34998387    -0.37500
C3195       C  0.63676218  0.57062001  0.20297648    -0.04200
C3196       C  0.64551083  0.60129745  0.20765763    -0.01300
C3197       C  0.65688387  0.62295333  0.18747626     0.03700
C3198       C  0.65733806  0.61350596  0.16207272    -0.04200
C3199       C  0.65181015  0.58345185  0.15804434    -0.01300
C3200       C  0.64146591  0.56212950  0.17845877     0.03700
C3201       C  0.64299838  0.61050116  0.23336570     0.38300
C3202       C  0.65649980  0.57382868  0.13316965     0.38300
C3203       C  0.63435907  0.53095766  0.17393526     0.36800
C3204       C  0.66961958  0.65521381  0.19311072     0.36800
N3205       N  0.62889256  0.50622902  0.17015667    -0.38100
N3206       N  0.68029321  0.68096651  0.19799888    -0.38100
N3207       N  0.66070094  0.56518783  0.11394908    -0.37500
N3208       N  0.64097419  0.61754817  0.25400036    -0.37500
C3209       C  0.92359694  0.86906331  0.30768617    -0.04200
C3210       C  0.92952830  0.84501866  0.30448322    -0.01300
C3211       C  0.94343992  0.83788537  0.32442019     0.03700
C3212       C  0.94930008  0.85326842  0.34803067    -0.04200
C3213       C  0.93934751  0.87423992  0.35213400    -0.01300
C3214       C  0.92911267  0.88405670  0.33145250     0.03700
C3215       C  0.92311131  0.82893186  0.28029499     0.38300
C3216       C  0.43946346  0.88592963  0.37741053     0.38300
C3217       C  0.92568710  0.91052081  0.33448662     0.36800
C3218       C  0.95177255  0.81479228  0.32076782     0.36800
N3219       N  0.42370468  0.93203809  0.33693510    -0.38100
N3220       N  0.95840629  0.79633084  0.31800966    -0.38100
N3221       N  0.43883087  0.89595156  0.39711852    -0.37500
N3222       N  0.91801264  0.81604615  0.26101536    -0.37500
C3223       C  0.93678952  0.87524325  0.19711045    -0.04200
C3224       C  0.92653055  0.87227046  0.17164610    -0.01300
C3225       C  0.94294979  0.86774003  0.15176521     0.03700
C3226       C  0.96814591  0.86355332  0.15744282    -0.04200
C3227       C  0.97601392  0.86321754  0.18328881    -0.01300
C3228       C  0.96208911  0.87142886  0.20280338     0.03700
C3229       C  0.89960030  0.87472801  0.16568802     0.38300
C3230       C  0.49689826  0.85263893  0.19003722     0.38300
C3231       C  0.97419048  0.87643581  0.22859553     0.36800
C3232       C  0.93428057  0.86810713  0.12541089     0.36800
N3233       N  0.48437822  0.88102475  0.24901233    -0.38100
N3234       N  0.92750178  0.86845462  0.10437587    -0.38100
N3235       N  0.51301258  0.84362736  0.19572535    -0.37500
N3236       N  0.87797779  0.87631390  0.16064509    -0.37500
C3237       C  0.84208931  0.95450313  0.34277936    -0.04200
C3238       C  0.84750727  0.93028290  0.34759617    -0.01300
C3239       C  0.84996407  0.91354325  0.32719662     0.03700
C3240       C  0.85155743  0.92355192  0.30194440    -0.04200
C3241       C  0.84374399  0.94586757  0.29681860    -0.01300
C3242       C  0.83730930  0.96010426  0.31722253     0.03700
C3243       C  0.85325733  0.92381857  0.37315849     0.38300
C3244       C  0.84114720  0.95310239  0.27054636     0.38300
C3245       C  0.82449251  0.97925739  0.31193429     0.36800
C3246       C  0.85125048  0.88620004  0.33215779     0.36800
N3247       N  0.81354976  0.99389226  0.30746284    -0.38100
N3248       N  0.85170177  0.86408518  0.33610627    -0.38100
N3249       N  0.83868849  0.95839547  0.24950123    -0.37500
N3250       N  0.85900816  0.91816733  0.39298266    -0.37500
C3251       C  0.86652936  0.92841823  0.19128469    -0.04200
C3252       C  0.88902567  0.94609083  0.17205303    -0.01300
C3253       C  0.88060418  0.95782351  0.15150043     0.03700
C3254       C  0.85037189  0.95353218  0.15092763    -0.04200
C3255       C  0.82727051  0.93412629  0.16904199    -0.01300
C3256       C  0.83528673  0.92144530  0.18917783     0.03700
C3257       C  0.92068039  0.95168469  0.17295782     0.38300
C3258       C  0.79541438  0.92781158  0.16733714     0.38300
C3259       C  0.81164942  0.90244395  0.20826555     0.36800
C3260       C  0.90266214  0.97326600  0.13051496     0.36800
N3261       N  0.79274651  0.88728899  0.22344676    -0.38100
N3262       N  0.92044007  0.98508859  0.11380345    -0.38100
N3263       N  0.77001300  0.92275859  0.16601383    -0.37500
N3264       N  0.94591284  0.95618289  0.17362260    -0.37500
C3265       C  0.93245859  0.55047191  0.30471362    -0.04200
C3266       C  0.90882806  0.55760433  0.30888594    -0.01300
C3267       C  0.88745571  0.54440254  0.32980908     0.03700
C3268       C  0.88832260  0.52274788  0.34611597    -0.04200
C3269       C  0.91312874  0.51733231  0.34316929    -0.01300
C3270       C  0.93488984  0.53084477  0.32266199     0.03700
C3271       C  0.90546437  0.57754574  0.29120504     0.38300
C3272       C  0.91743068  0.99923322  0.36222819     0.38300
C3273       C  0.96074336  0.02552978  0.32104480     0.36800
C3274       C  0.86453027  0.55319367  0.33462823     0.36800
N3275       N  0.98147700  0.02147913  0.31996122    -0.38100
N3276       N  0.84637664  0.56034041  0.33867231    -0.38100
N3277       N  0.92139766  0.98528038  0.37753779    -0.37500
N3278       N  0.90254374  0.59326607  0.27702697    -0.37500
C3279       C  0.92867824  0.54795219  0.19170472    -0.04200
C3280       C  0.93677834  0.55350292  0.16544453    -0.01300
C3281       C  0.91311353  0.54050561  0.14654621     0.03700
C3282       C  0.88102765  0.52138218  0.15364567    -0.04200
C3283       C  0.87288796  0.51821423  0.17996983    -0.01300
C3284       C  0.89656951  0.53120791  0.19882656     0.03700
C3285       C  0.96948231  0.57296117  0.15778516     0.38300
C3286       C  0.84010797  0.00275539  0.18767203     0.38300
C3287       C  0.88802166  0.02808762  0.22569833     0.36800
C3288       C  0.92188422  0.54651055  0.11971274     0.36800
N3289       N  0.88160487  0.02608618  0.24721920    -0.38100
N3290       N  0.92889730  0.55129879  0.09829825    -0.38100
N3291       N  0.81402133  0.99087379  0.19405104    -0.37500
N3292       N  0.99545460  0.58871230  0.15137533    -0.37500
C3293       C  0.60989450  0.64922586  0.33929693    -0.04200
C3294       C  0.61889623  0.65568214  0.31321928    -0.01300
C3295       C  0.59589498  0.64349288  0.29381048     0.03700
C3296       C  0.56364450  0.62478675  0.30025664    -0.04200
C3297       C  0.55457227  0.62145028  0.32630083    -0.01300
C3298       C  0.57751966  0.63367713  0.34571059     0.03700
C3299       C  0.65172369  0.67637530  0.30645664     0.38300
C3300       C  0.52158171  0.60660356  0.33318442     0.38300
C3301       C  0.56771315  0.63054711  0.37228860     0.36800
C3302       C  0.60538001  0.65118697  0.26726603     0.36800
N3303       N  0.55986286  0.62831429  0.39348485    -0.38100
N3304       N  0.61329497  0.65776761  0.24617453    -0.38100
N3305       N  0.49540684  0.59545187  0.33902180    -0.37500
N3306       N  0.67781748  0.69335532  0.30097820    -0.37500
C3307       C  0.61309548  0.63624024  0.15357186    -0.04200
C3308       C  0.61048301  0.65837408  0.16806575    -0.01300
C3309       C  0.58523126  0.64905468  0.18563373     0.03700
C3310       C  0.56235461  0.61738936  0.18917426    -0.04200
C3311       C  0.56342139  0.59567352  0.17276840    -0.01300
C3312       C  0.58841964  0.60505017  0.15505697     0.03700
C3313       C  0.63417840  0.69087183  0.16542233     0.38300
C3314       C  0.53769591  0.56375321  0.17289742     0.38300
C3315       C  0.58793616  0.58262106  0.13758083     0.36800
C3316       C  0.58333775  0.67228330  0.20023638     0.36800
N3317       N  0.58713847  0.56452522  0.12366517    -0.38100
N3318       N  0.58187382  0.69093753  0.21175270    -0.38100
N3319       N  0.01673957  0.53851448  0.17285642    -0.37500
N3320       N  0.65294271  0.71684959  0.16340011    -0.37500
C3321       C  0.67276568  0.74191498  0.04743029    -0.04200
C3322       C  0.69046550  0.75120590  0.07019760    -0.01300
C3323       C  0.69169941  0.72922345  0.08592328     0.03700
C3324       C  0.67689142  0.69790949  0.07846689    -0.04200
C3325       C  0.66119794  0.68909730  0.05486751    -0.01300
C3326       C  0.65867370  0.71070882  0.03970089     0.03700
C3327       C  0.70531555  0.78294200  0.07865559     0.38300
C3328       C  0.64544932  0.65720460  0.04682545     0.38300
C3329       C  0.64025540  0.70000790  0.01659623     0.36800
C3330       C  0.70604959  0.73843897  0.11089714     0.36800
N3331       N  0.62491168  0.69026328  0.99857017    -0.38100
N3332       N  0.71729525  0.74586271  0.13088486    -0.38100
N3333       N  0.63239989  0.63203217  0.03962185    -0.37500
N3334       N  0.71716097  0.80827560  0.08534745    -0.37500
C3335       C  0.56900910  0.82347933  0.04539825    -0.04200
C3336       C  0.56045015  0.84447223  0.03690037    -0.01300
C3337       C  0.54552141  0.85464838  0.05381253     0.03700
C3338       C  0.53584216  0.84144296  0.07836943    -0.04200
C3339       C  0.54360111  0.82003184  0.08681255    -0.01300
C3340       C  0.56024514  0.81121706  0.07061515     0.03700
C3341       C  0.56568607  0.85473040  0.01049430     0.38300
C3342       C  0.53653024  0.80879226  0.11300823     0.38300
C3343       C  0.56938829  0.79052396  0.08072706     0.36800
C3344       C  0.54198485  0.88009005  0.04651036     0.36800
N3345       N  0.57650813  0.77398200  0.08894868    -0.38100
N3346       N  0.53985875  0.90086006  0.04079720    -0.38100
N3347       N  0.53146008  0.80014221  0.13396946    -0.37500
N3348       N  0.56926394  0.86268606  0.98936490    -0.37500
C3349       C  0.79205259  0.94716984  0.07348789    -0.04200
C3350       C  0.75901359  0.93008686  0.07715079    -0.01300
C3351       C  0.73911678  0.90784195  0.05890291     0.03700
C3352       C  0.75196754  0.90293438  0.03642759    -0.04200
C3353       C  0.78499800  0.92026260  0.03279384    -0.01300
C3354       C  0.80479679  0.94027342  0.05208663     0.03700
C3355       C  0.74558856  0.93358100  0.10068496     0.38300
C3356       C  0.79896871  0.91750834  0.00925937     0.38300
C3357       C  0.83785049  0.95029810  0.05148420     0.36800
C3358       C  0.70533635  0.89063661  0.06302011     0.36800
N3359       N  0.86385285  0.95693721  0.05135521    -0.38100
N3360       N  0.67840264  0.87707767  0.06646873    -0.38100
N3361       N  0.81039644  0.91605228  0.99035753    -0.37500
N3362       N  0.73466846  0.93578953  0.11959192    -0.37500
C3363       C  0.66656929  0.71066103  0.41707027    -0.04200
C3364       C  0.65748838  0.70381633  0.44316052    -0.01300
C3365       C  0.65865655  0.72657490  0.45949102     0.03700
C3366       C  0.66577964  0.75515735  0.44940825    -0.04200
C3367       C  0.67565521  0.76246088  0.42366465    -0.01300
C3368       C  0.67672843  0.74063500  0.40773458     0.03700
C3369       C  0.64324636  0.67265742  0.45280792     0.38300
C3370       C  0.68388912  0.79227280  0.41337176     0.38300
C3371       C  0.68681675  0.74859141  0.38124646     0.36800
C3372       C  0.65080311  0.72004783  0.48645433     0.36800
N3373       N  0.69472288  0.75476756  0.36009830    -0.38100
N3374       N  0.64490140  0.71515307  0.50803489    -0.38100
N3375       N  0.69033236  0.81600145  0.40517616    -0.37500
N3376       N  0.63094247  0.64805020  0.46136022    -0.37500
C3377       C  0.52466399  0.83771957  0.42290180    -0.04200
C3378       C  0.53044797  0.85115454  0.44750221    -0.01300
C3379       C  0.55453182  0.85290038  0.46282769     0.03700
C3380       C  0.57288235  0.84115859  0.45372726    -0.04200
C3381       C  0.56675007  0.82717735  0.42944899    -0.01300
C3382       C  0.54319558  0.82591458  0.41396980     0.03700
C3383       C  0.01268368  0.86441431  0.45679403     0.38300
C3384       C  0.58504398  0.81430395  0.42022774     0.38300
C3385       C  0.53845027  0.81270907  0.38860835     0.36800
C3386       C  0.56022621  0.86644860  0.48809954     0.36800
N3387       N  0.53477683  0.80171053  0.36857918    -0.38100
N3388       N  0.56470769  0.87720996  0.50828948    -0.38100
N3389       N  0.59955461  0.80396324  0.41294464    -0.37500
N3390       N  0.99900127  0.87531383  0.46475683    -0.37500
C3391       C  0.79062701  0.95515933  0.42346775    -0.04200
C3392       C  0.76506867  0.95975963  0.42603669    -0.01300
C3393       C  0.73937610  0.94051528  0.44262270     0.03700
C3394       C  0.73708042  0.91414670  0.45396559    -0.04200
C3395       C  0.76028889  0.90715930  0.44785330    -0.01300
C3396       C  0.78812140  0.92892301  0.43509068     0.03700
C3397       C  0.76612569  0.98527401  0.41282759     0.38300
C3398       C  0.75542087  0.87728877  0.45456782     0.38300
C3399       C  0.81547114  0.92621473  0.43709638     0.36800
C3400       C  0.71650845  0.94889629  0.44901463     0.36800
N3401       N  0.83718376  0.92419132  0.44041996    -0.38100
N3402       N  0.69839694  0.95574037  0.45429860    -0.38100
N3403       N  0.75108478  0.85319759  0.45946095    -0.37500
N3404       N  0.76715790  0.50578919  0.40236927    -0.37500
C3405       C  0.53826728  0.71350219  0.91520061    -0.04200
C3406       C  0.53752154  0.74028856  0.92117670    -0.01300
C3407       C  0.55736504  0.76097600  0.94035672     0.03700
C3408       C  0.57977736  0.75635371  0.95252282    -0.04200
C3409       C  0.58302373  0.73175257  0.94424599    -0.01300
C3410       C  0.56152941  0.70964745  0.92692567     0.03700
C3411       C  0.51763453  0.74762388  0.90679940     0.38300
C3412       C  0.61027139  0.73069380  0.95190344     0.38300
C3413       C  0.56318308  0.68249757  0.92172071     0.36800
C3414       C  0.55455804  0.78694041  0.94752689     0.36800
N3415       N  0.56437362  0.66077273  0.91769032    -0.38100
N3416       N  0.55232503  0.80771097  0.95312983    -0.38100
N3417       N  0.63268339  0.73070699  0.95729603    -0.37500
N3418       N  0.50231496  0.75420740  0.89530123    -0.37500
C3419       C  0.65475674  0.95724765  0.91840888    -0.04200
C3420       C  0.64371337  0.95096886  0.94406589    -0.01300
C3421       C  0.64665346  0.92935232  0.95889365     0.03700
C3422       C  0.65909951  0.91260840  0.94788463    -0.04200
C3423       C  0.66900604  0.91793964  0.92203305    -0.01300
C3424       C  0.66690072  0.94005758  0.90741573     0.03700
C3425       C  0.62751815  0.96511138  0.95493271     0.38300
C3426       C  0.68120856  0.90035323  0.91032486     0.38300
C3427       C  0.67765670  0.94524636  0.88098334     0.36800
C3428       C  0.63788944  0.92510689  0.98576106     0.36800
N3429       N  0.68654373  0.94934760  0.85999561    -0.38100
N3430       N  0.63121980  0.92197555  0.00727818    -0.38100
N3431       N  0.69085568  0.88628286  0.90096740    -0.37500
N3432       N  0.61386028  0.97543870  0.96408887    -0.37500
C3433       C  0.79142005  0.83062177  0.58475564    -0.04200
C3434       C  0.80114922  0.84767160  0.56173451    -0.01300
C3435       C  0.77879953  0.84739805  0.54535323     0.03700
C3436       C  0.74653143  0.83095136  0.55220991    -0.04200
C3437       C  0.73660399  0.81314810  0.57485310    -0.01300
C3438       C  0.75907438  0.81371993  0.59144554     0.03700
C3439       C  0.83432228  0.86882282  0.55640017     0.38300
C3440       C  0.70353436  0.79606207  0.58199189     0.38300
C3441       C  0.74927292  0.79974458  0.61661046     0.36800
C3442       C  0.78937287  0.86539120  0.52188939     0.36800
N3443       N  0.74153460  0.78909313  0.63686685    -0.38100
N3444       N  0.79831513  0.87998731  0.50334320    -0.38100
N3445       N  0.67712970  0.78232759  0.58762242    -0.37500
N3446       N  0.86052633  0.88665059  0.55200544    -0.37500
C3447       C  0.75682840  0.82495024  0.95351686    -0.04200
C3448       C  0.75140589  0.81269153  0.92864487    -0.01300
C3449       C  0.77632757  0.81452523  0.91419010     0.03700
C3450       C  0.80716208  0.82985855  0.92416664    -0.04200
C3451       C  0.81186993  0.84005133  0.94983655    -0.01300
C3452       C  0.78627718  0.83605324  0.96483393     0.03700
C3453       C  0.72035565  0.79922314  0.91764532     0.38300
C3454       C  0.84316809  0.85782508  0.96020603     0.38300
C3455       C  0.79049875  0.84480946  0.99157738     0.36800
C3456       C  0.77063570  0.80281784  0.88824400     0.36800
N3457       N  0.79358388  0.85127766  0.01302749    -0.38100
N3458       N  0.76582384  0.79348134  0.86754473    -0.38100
N3459       N  0.86762714  0.87282438  0.96936296    -0.37500
N3460       N  0.69557184  0.78846850  0.90893253    -0.37500
C3461       C  0.67941581  0.98528139  0.57702847    -0.04200
C3462       C  0.69382697  0.96875611  0.58373142    -0.01300
C3463       C  0.69285036  0.94661712  0.56704997     0.03700
C3464       C  0.67669234  0.93999194  0.54360640    -0.04200
C3465       C  0.66148126  0.95581638  0.53705814    -0.01300
C3466       C  0.66260050  0.97823484  0.55386326     0.03700
C3467       C  0.70732189  0.97240595  0.60888477     0.38300
C3468       C  0.64481826  0.94914219  0.51310092     0.38300
C3469       C  0.64476270  0.99250359  0.54805538     0.36800
C3470       C  0.70699932  0.92922433  0.57489021     0.36800
N3471       N  0.62996816  0.00328697  0.54329257    -0.38100
N3472       N  0.71819690  0.91532182  0.58110999    -0.38100
N3473       N  0.63151778  0.94388551  0.49398063    -0.37500
N3474       N  0.71783807  0.47468690  0.62895796    -0.37500
C3475       C  0.58921684  0.74739447  0.53878195    -0.04200
C3476       C  0.57164495  0.71587640  0.53169984    -0.01300
C3477       C  0.55181186  0.69285705  0.54965239     0.03700
C3478       C  0.54681113  0.70096994  0.57429661    -0.04200
C3479       C  0.56433639  0.73245204  0.58146001    -0.01300
C3480       C  0.58589514  0.75539410  0.56404848     0.03700
C3481       C  0.57465698  0.70675685  0.50602348     0.38300
C3482       C  0.56092294  0.74128093  0.60709736     0.38300
C3483       C  0.60437685  0.78726894  0.57217941     0.36800
C3484       C  0.53885221  0.66075418  0.54329275     0.36800
N3485       N  0.61923817  0.81261534  0.57888002    -0.38100
N3486       N  0.52973203  0.63541388  0.53789280    -0.38100
N3487       N  0.55843946  0.74863320  0.62751444    -0.37500
N3488       N  0.57677588  0.69941471  0.48550357    -0.37500
C3489       C  0.94000769  0.87842718  0.80019698    -0.04200
C3490       C  0.94863318  0.87407407  0.82465848    -0.01300
C3491       C  0.92742697  0.86586580  0.84537791     0.03700
C3492       C  0.89642657  0.85922807  0.84124922    -0.04200
C3493       C  0.88677077  0.85938028  0.81595228    -0.01300
C3494       C  0.90908234  0.87122537  0.79590452     0.03700
C3495       C  0.97972091  0.87915606  0.82878217     0.38300
C3496       C  0.85377784  0.84581585  0.81015867     0.38300
C3497       C  0.90028276  0.87605849  0.77081562     0.36800
C3498       C  0.93811968  0.86520993  0.87092213     0.36800
N3499       N  0.89379444  0.88043418  0.75077068    -0.38100
N3500       N  0.94689487  0.86461892  0.89117283    -0.38100
N3501       N  0.82752768  0.83453408  0.80497843    -0.37500
N3502       N  0.00436699  0.88292996  0.83219698    -0.37500
C3503       C  0.56850208  0.95524301  0.79932772    -0.04200
C3504       C  0.59896556  0.96011091  0.79723249    -0.01300
C3505       C  0.61892674  0.97054701  0.81850030     0.03700
C3506       C  0.60844834  0.97611003  0.84189692    -0.04200
C3507       C  0.57761750  0.97024616  0.84420121    -0.01300
C3508       C  0.55808340  0.96095291  0.82271655     0.03700
C3509       C  0.61018396  0.95536753  0.77298024     0.38300
C3510       C  0.56521964  0.47179379  0.86898705     0.38300
C3511       C  0.52690245  0.45641441  0.82494532     0.36800
C3512       C  0.64979823  0.97448294  0.81644266     0.36800
N3513       N  0.50210100  0.45291587  0.82669188    -0.38100
N3514       N  0.67423329  0.97721701  0.81436018    -0.38100
N3515       N  0.55471674  0.47220587  0.88871560    -0.37500
N3516       N  0.61947799  0.95198350  0.75365566    -0.37500
C3517       C  0.57071923  0.95395537  0.68815627    -0.04200
C3518       C  0.59264604  0.94457543  0.68389752    -0.01300
C3519       C  0.61710472  0.96016889  0.66581665     0.03700
C3520       C  0.62031329  0.98552124  0.65212011    -0.04200
C3521       C  0.59693199  0.99289896  0.65426768    -0.01300
C3522       C  0.57256212  0.97766979  0.67246636     0.03700
C3523       C  0.59107695  0.91947737  0.69834297     0.38300
C3524       C  0.59728480  0.51534622  0.63695922     0.38300
C3525       C  0.54886097  0.48591220  0.67402875     0.36800
C3526       C  0.63944424  0.95040940  0.66179453     0.36800
N3527       N  0.52961472  0.49205513  0.67492121    -0.38100
N3528       N  0.65694725  0.94224950  0.65878300    -0.38100
N3529       N  0.59730246  0.53297729  0.62302887    -0.37500
N3530       N  0.59009655  0.89946016  0.70962857    -0.37500
C3531       C  0.88958382  0.85521929  0.65581718    -0.04200
C3532       C  0.92036795  0.87879381  0.64900354    -0.01300
C3533       C  0.94498040  0.88775322  0.66625027     0.03700
C3534       C  0.93869801  0.87415999  0.69068149    -0.04200
C3535       C  0.90875157  0.84833410  0.69643145    -0.01300
C3536       C  0.88420941  0.83863066  0.67879597     0.03700
C3537       C  0.92708905  0.89393364  0.62431277     0.38300
C3538       C  0.90317478  0.83193469  0.72041155     0.38300
C3539       C  0.85359822  0.81152783  0.68411028     0.36800
C3540       C  0.97708037  0.90933186  0.65811955     0.36800
N3541       N  0.82925521  0.78967790  0.68819352    -0.38100
N3542       N  0.50249556  0.92560066  0.65069124    -0.38100
N3543       N  0.89870055  0.81869414  0.73947954    -0.37500
N3544       N  0.93362301  0.90678616  0.60489906    -0.37500
C3545       C  0.55900511  0.63022366  0.80262710    -0.04200
C3546       C  0.54049211  0.61091135  0.82321240    -0.01300
C3547       C  0.52876276  0.62204640  0.84233889     0.03700
C3548       C  0.53045476  0.65041903  0.83915505    -0.04200
C3549       C  0.54758763  0.66925514  0.81802776    -0.01300
C3550       C  0.56253270  0.65966044  0.80032226     0.03700
C3551       C  0.53352211  0.57952560  0.82515541     0.38300
C3552       C  0.55001568  0.69866174  0.81454244     0.38300
C3553       C  0.58047233  0.67978377  0.77915442     0.36800
C3554       C  0.01748785  0.60546680  0.86637468     0.36800
N3555       N  0.59483020  0.69608650  0.76238129    -0.38100
N3556       N  0.00948693  0.59252012  0.88574790    -0.38100
N3557       N  0.55199572  0.72214939  0.81170523    -0.37500
N3558       N  0.02779132  0.55442796  0.82675291    -0.37500
C3559       C  0.64702879  0.54343552  0.84983299    -0.04200
C3560       C  0.62633834  0.55383040  0.85530460    -0.01300
C3561       C  0.62241435  0.57217257  0.83740367     0.03700
C3562       C  0.63763058  0.57874293  0.81340921    -0.04200
C3563       C  0.66168939  0.57239729  0.80948784    -0.01300
C3564       C  0.66666070  0.55506707  0.82787740     0.03700
C3565       C  0.60921962  0.54611512  0.87936634     0.38300
C3566       C  0.68167337  0.58429119  0.78691529     0.38300
C3567       C  0.69246119  0.55000414  0.82464356     0.36800
C3568       C  0.60543555  0.58699083  0.84466246     0.36800
N3569       N  0.71345234  0.54648826  0.82227751    -0.38100
N3570       N  0.59330775  0.59993023  0.85139726    -0.38100
N3571       N  0.69794455  0.59417506  0.76908347    -0.37500
N3572       N  0.59510286  0.54044397  0.89834547    -0.37500
C3573       C  0.64575983  0.57494809  0.70287378    -0.04200
C3574       C  0.65349633  0.58915443  0.67853001    -0.01300
C3575       C  0.66371782  0.57754322  0.65852807     0.03700
C3576       C  0.66733202  0.55207076  0.66279958    -0.04200
C3577       C  0.66346912  0.54064992  0.68815402    -0.01300
C3578       C  0.65120105  0.55088117  0.70768503     0.03700
C3579       C  0.64925867  0.61479253  0.67360080     0.38300
C3580       C  0.67320341  0.01922223  0.69451295     0.38300
C3581       C  0.64407483  0.53655373  0.73276706     0.36800
C3582       C  0.66942186  0.59150690  0.63341236     0.36800
N3583       N  0.63815888  0.52505941  0.75276695    -0.38100
N3584       N  0.67406882  0.60344824  0.61369038    -0.38100
N3585       N  0.68131250  0.00251791  0.70014665    -0.37500
N3586       N  0.64595971  0.63528400  0.66971267    -0.37500
C3587       C  0.54479637  0.63924472  0.64932386    -0.04200
C3588       C  0.53560224  0.60839782  0.65414474    -0.01300
C3589       C  0.54664768  0.60067380  0.67592117     0.03700
C3590       C  0.57002505  0.62410856  0.69177896    -0.04200
C3591       C  0.58232319  0.65537845  0.68458570    -0.01300
C3592       C  0.56969834  0.66278747  0.66368491     0.03700
C3593       C  0.51536580  0.58460539  0.63614906     0.38300
C3594       C  0.60730362  0.68055371  0.69898634     0.38300
C3595       C  0.08210756  0.69496265  0.65755595     0.36800
C3596       C  0.53279832  0.56833600  0.68202341     0.36800
N3597       N  0.09269082  0.72075520  0.65278800    -0.38100
N3598       N  0.52098768  0.54247309  0.68708600    -0.38100
N3599       N  0.12736927  0.70088265  0.71015011    -0.37500
N3600       N  0.49966564  0.56566638  0.62162182    -0.37500
C3601       C  0.93702422  0.56935250  0.80496216    -0.04200
C3602       C  0.93527612  0.56222185  0.83125725    -0.01300
C3603       C  0.94639604  0.58591400  0.84969966     0.03700
C3604       C  0.96100719  0.61698404  0.84180929    -0.04200
C3605       C  0.95886343  0.62353610  0.81597033    -0.01300
C3606       C  0.94604486  0.59961614  0.79772640     0.03700
C3607       C  0.92038710  0.53043762  0.83954236     0.38300
C3608       C  0.46862382  0.65469774  0.80843017     0.38300
C3609       C  0.94051747  0.60585172  0.77193431     0.36800
C3610       C  0.94244581  0.57833326  0.87673560     0.36800
N3611       N  0.43537496  0.61093686  0.75161632    -0.38100
N3612       N  0.93899111  0.57231268  0.89832007    -0.38100
N3613       N  0.47601003  0.67947519  0.80241939    -0.37500
N3614       N  0.90794099  0.50523726  0.84676638    -0.37500
C3615       C  0.88330820  0.94213446  0.81100276    -0.04200
C3616       C  0.90679663  0.94458844  0.82775741    -0.01300
C3617       C  0.89894099  0.92289180  0.84757706     0.03700
C3618       C  0.86781509  0.89779848  0.85062367    -0.04200
C3619       C  0.84381715  0.89729039  0.83601039    -0.01300
C3620       C  0.85148438  0.91922581  0.81628853     0.03700
C3621       C  0.93913820  0.97012228  0.82548528     0.38300
C3622       C  0.81114827  0.87354201  0.84042322     0.38300
C3623       C  0.82638543  0.91734594  0.80111659     0.36800
C3624       C  0.92292927  0.92682628  0.86531625     0.36800
N3625       N  0.80624765  0.91575672  0.78911069    -0.38100
N3626       N  0.94216522  0.93027523  0.87946614    -0.38100
N3627       N  0.78487333  0.85494980  0.84354317    -0.37500
N3628       N  0.96486000  0.99060524  0.82382818    -0.37500
C3629       C  0.94464076  0.56761901  0.69595701    -0.04200
C3630       C  0.93197403  0.56103091  0.67113037    -0.01300
C3631       C  0.94791965  0.58230113  0.65091311     0.03700
C3632       C  0.97455463  0.61199172  0.65594380    -0.04200
C3633       C  0.98384166  0.61993582  0.68163296    -0.01300
C3634       C  0.97129639  0.59707128  0.70088746     0.03700
C3635       C  0.90345163  0.53171342  0.66605761     0.38300
C3636       C  0.50537218  0.65182710  0.68854283     0.38300
C3637       C  0.48671856  0.60380667  0.72546052     0.36800
C3638       C  0.93752084  0.57274152  0.62493212     0.36800
N3639       N  0.49955393  0.60920037  0.74482229    -0.38100
N3640       N  0.92886792  0.56450874  0.60435814    -0.38100
N3641       N  0.52207215  0.67729115  0.69432492    -0.37500
N3642       N  0.88058098  0.50842172  0.66203809    -0.37500
C3643       C  0.85700734  0.88928811  0.65978329    -0.04200
C3644       C  0.84495020  0.88202953  0.68502093    -0.01300
C3645       C  0.85735440  0.90486929  0.70427859     0.03700
C3646       C  0.88222253  0.93522547  0.69861442    -0.04200
C3647       C  0.89396672  0.94255530  0.67325984    -0.01300
C3648       C  0.88030046  0.92010969  0.65375004     0.03700
C3649       C  0.81869352  0.85137047  0.69092850     0.38300
C3650       C  0.92022621  0.97317432  0.66719412     0.38300
C3651       C  0.88873666  0.92919607  0.62724844     0.36800
C3652       C  0.84522557  0.89667295  0.73019929     0.36800
N3653       N  0.89493910  0.93674197  0.60607461    -0.38100
N3654       N  0.83558835  0.88958328  0.75086051    -0.38100
N3655       N  0.94151974  0.49743449  0.66236801    -0.37500
N3656       N  0.79740567  0.82710344  0.69573038    -0.37500
C3657       C  0.97427888  0.66718537  0.57771272    -0.04200
C3658       C  0.95801697  0.64473344  0.55860887    -0.01300
C3659       C  0.93619300  0.64632320  0.54268084     0.03700
C3660       C  0.92898669  0.66942084  0.54657769    -0.04200
C3661       C  0.94468855  0.69143849  0.56620324    -0.01300
C3662       C  0.96702941  0.69020007  0.58169383     0.03700
C3663       C  0.96178571  0.61844830  0.55662140     0.38300
C3664       C  0.93656103  0.71444216  0.57161592     0.38300
C3665       C  0.48037812  0.71101947  0.60318347     0.36800
C3666       C  0.92151977  0.62427325  0.52213090     0.36800
N3667       N  0.49016532  0.72749179  0.62049295    -0.38100
N3668       N  0.91009614  0.60658900  0.50575520    -0.38100
N3669       N  0.93000940  0.73271422  0.57592222    -0.37500
N3670       N  0.96414198  0.59706533  0.55520546    -0.37500
C3671       C  0.84644013  0.52640202  0.43325888    -0.04200
C3672       C  0.87317392  0.55670724  0.43561871    -0.01300
C3673       C  0.87014149  0.58020381  0.44716523     0.03700
C3674       C  0.84128181  0.57271747  0.45892605    -0.04200
C3675       C  0.81834842  0.54112862  0.46271564    -0.01300
C3676       C  0.82310132  0.51823379  0.45234248     0.03700
C3677       C  0.90429712  0.56275315  0.42924042     0.38300
C3678       C  0.79101011  0.53192008  0.47890516     0.38300
C3679       C  0.81455285  0.99200980  0.46864216     0.36800
C3680       C  0.89634196  0.61180870  0.44588735     0.36800
N3681       N  0.80818025  0.97185977  0.48255631    -0.38100
N3682       N  0.91759490  0.63687296  0.44472159    -0.38100
N3683       N  0.76911394  0.52461062  0.49170029    -0.37500
N3684       N  0.92914244  0.56752065  0.42436491    -0.37500
C3685       C  0.76610891  0.58846341  0.54054836    -0.04200
C3686       C  0.73912700  0.59034003  0.54513077    -0.01300
C3687       C  0.71693999  0.57180737  0.56402665     0.03700
C3688       C  0.72347390  0.55460725  0.58117024    -0.04200
C3689       C  0.75235007  0.55585165  0.57880811    -0.01300
C3690       C  0.77258643  0.57099572  0.55763617     0.03700
C3691       C  0.73513453  0.61300024  0.53179831     0.38300
C3692       C  0.76243484  0.54340617  0.59875308     0.38300
C3693       C  0.79951733  0.56783482  0.55327051     0.36800
C3694       C  0.68710295  0.57025259  0.56553657     0.36800
N3695       N  0.82084603  0.56508773  0.54968494    -0.38100
N3696       N  0.66314858  0.56872267  0.56624355    -0.38100
N3697       N  0.77190701  0.03474970  0.61465552    -0.37500
N3698       N  0.73229221  0.63160227  0.52175303    -0.37500
C3699       C  0.90509376  0.75659211  0.46021403    -0.04200
C3700       C  0.90631672  0.78447657  0.45662562    -0.01300
C3701       C  0.93033537  0.80776572  0.44133379     0.03700
C3702       C  0.95104779  0.80201373  0.42696181    -0.04200
C3703       C  0.94776882  0.77277153  0.42900522    -0.01300
C3704       C  0.92591983  0.75079037  0.44655462     0.03700
C3705       C  0.88227532  0.78886136  0.46796858     0.38300
C3706       C  0.96447310  0.76381172  0.41181036     0.38300
C3707       C  0.92384506  0.72150498  0.44992878     0.36800
C3708       C  0.93342859  0.83766240  0.44047717     0.36800
N3709       N  0.92195507  0.69808029  0.45283012    -0.38100
N3710       N  0.93568955  0.86144274  0.44067677    -0.38100
N3711       N  0.97643147  0.75492224  0.39823397    -0.37500
N3712       N  0.86286644  0.79235518  0.47649246    -0.37500
C3713       C  0.69967169  0.67270175  0.42022666    -0.04200
C3714       C  0.73055968  0.69855043  0.42231557    -0.01300
C3715       C  0.75341088  0.69674371  0.43689445     0.03700
C3716       C  0.74541547  0.66922914  0.45013469    -0.04200
C3717       C  0.71358642  0.64442744  0.44988920    -0.01300
C3718       C  0.69130141  0.64584850  0.43456911     0.03700
C3719       C  0.73972538  0.72628562  0.40784555     0.38300
C3720       C  0.70342654  0.61661934  0.46475832     0.38300
C3721       C  0.66006249  0.61849807  0.43221282     0.36800
C3722       C  0.78571944  0.72242045  0.43634845     0.36800
N3723       N  0.63534606  0.59653237  0.43034753    -0.38100
N3724       N  0.81151981  0.74288903  0.43567835    -0.38100
N3725       N  0.69478402  0.59413487  0.47627369    -0.37500
N3726       N  0.74757744  0.74868843  0.39647441    -0.37500
C3727       C  0.83224744  0.75513800  0.54731294    -0.04200
C3728       C  0.80501606  0.74574135  0.56237271    -0.01300
C3729       C  0.80375599  0.76678393  0.57949543     0.03700
C3730       C  0.82874914  0.79802205  0.58027722    -0.04200
C3731       C  0.85479100  0.80773800  0.56352491    -0.01300
C3732       C  0.85691419  0.78641953  0.54775990     0.03700
C3733       C  0.77956383  0.71372796  0.56202950     0.38300
C3734       C  0.88114721  0.83931113  0.56393511     0.38300
C3735       C  0.88589325  0.79652940  0.53345790     0.36800
C3736       C  0.77854743  0.75511975  0.59827815     0.36800
N3737       N  0.90940628  0.80487516  0.52267944    -0.38100
N3738       N  0.75842090  0.74468946  0.61335225    -0.38100
N3739       N  0.90279516  0.86416408  0.56366459    -0.37500
N3740       N  0.75925995  0.68817738  0.56171303    -0.37500
C3741       C  0.73643793  0.57396935  0.95989083    -0.04200
C3742       C  0.74258405  0.55312142  0.94733718    -0.01300
C3743       C  0.71990277  0.53074976  0.93083819     0.03700
C3744       C  0.69010476  0.52755938  0.92874260    -0.04200
C3745       C  0.68275951  0.54570390  0.94441846    -0.01300
C3746       C  0.70621992  0.56968381  0.95903035     0.03700
C3747       C  0.77326527  0.55661640  0.94948577     0.38300
C3748       C  0.65172814  0.54157726  0.94388670     0.38300
C3749       C  0.69981197  0.59131294  0.97167339     0.36800
C3750       C  0.72891347  0.51393737  0.91407327     0.36800
N3751       N  0.69472871  0.60876142  0.98132112    -0.38100
N3752       N  0.73736906  0.50140535  0.90083773    -0.38100
N3753       N  0.62708755  0.53854074  0.94402765    -0.37500
N3754       N  0.79770140  0.55938918  0.95135268    -0.37500
C3755       C  0.75080876  0.65351833  0.04443401    -0.04200
C3756       C  0.76117790  0.68165985  0.05722719    -0.01300
C3757       C  0.74136776  0.68430068  0.07528232     0.03700
C3758       C  0.71001513  0.65971230  0.07898400    -0.04200
C3759       C  0.69946211  0.63183832  0.06545299    -0.01300
C3760       C  0.72019026  0.62834064  0.04923634     0.03700
C3761       C  0.79259562  0.70773684  0.05212170     0.38300
C3762       C  0.66709942  0.60655756  0.06821127     0.38300
C3763       C  0.71032034  0.59850519  0.03817259     0.36800
C3764       C  0.75403631  0.71160124  0.09099425     0.36800
N3765       N  0.70250030  0.57448073  0.02984865    -0.38100
N3766       N  0.76506269  0.73343781  0.10360856    -0.38100
N3767       N  0.64116030  0.58653096  0.07005067    -0.37500
N3768       N  0.81764894  0.72847268  0.04788739    -0.37500
C3769       C  0.92605100  0.67830731  0.95957297    -0.04200
C3770       C  0.95054379  0.67260482  0.96486125    -0.01300
C3771       C  0.96833184  0.66999454  0.94483887     0.03700
C3772       C  0.96506741  0.67679202  0.91934194    -0.04200
C3773       C  0.94202037  0.68429549  0.91405346    -0.01300
C3774       C  0.92232350  0.68447380  0.93380247     0.03700
C3775       C  0.95849506  0.67012603  0.99100957     0.38300
C3776       C  0.93803275  0.69126669  0.88798355     0.38300
C3777       C  0.89761342  0.69009020  0.92713881     0.36800
C3778       C  0.98790669  0.65751808  0.95046064     0.36800
N3779       N  0.87790031  0.69454370  0.92174030    -0.38100
N3780       N  0.00276952  0.64684383  0.95533848    -0.38100
N3781       N  0.43486844  0.69683423  0.86719537    -0.37500
N3782       N  0.96522100  0.66836455  0.01177173    -0.37500
C3783       C  0.81969694  0.56331222  0.04605966    -0.04200
C3784       C  0.83745687  0.55015434  0.03850409    -0.01300
C3785       C  0.83960380  0.52938270  0.05473967     0.03700
C3786       C  0.82012872  0.51748424  0.07665811    -0.04200
C3787       C  0.79888057  0.52720936  0.08235323    -0.01300
C3788       C  0.79909906  0.55055110  0.06745497     0.03700
C3789       C  0.85429819  0.55848662  0.01417252     0.38300
C3790       C  0.77872472  0.51514748  0.10484455     0.38300
C3791       C  0.77959261  0.56258181  0.07522229     0.36800
C3792       C  0.86514995  0.52410850  0.05061271     0.36800
N3793       N  0.76401305  0.57215167  0.08147508    -0.38100
N3794       N  0.88663258  0.02159605  0.04719225    -0.38100
N3795       N  0.76268129  0.50578697  0.12283658    -0.37500
N3796       N  0.86751943  0.56496082  0.99470280    -0.37500
C3797       C  0.93246280  0.74963116  0.05238046    -0.04200
C3798       C  0.94701070  0.77945136  0.04163361    -0.01300
C3799       C  0.96144663  0.80537130  0.05755769     0.03700
C3800       C  0.96659437  0.80207504  0.08347058    -0.04200
C3801       C  0.95352253  0.77236960  0.09418279    -0.01300
C3802       C  0.93555850  0.74619070  0.07892393     0.03700
C3803       C  0.94816991  0.78355483  0.01412078     0.38300
C3804       C  0.95703423  0.76864841  0.12123773     0.38300
C3805       C  0.91908149  0.71600514  0.09106678     0.36800
C3806       C  0.96708231  0.83454674  0.04803148     0.36800
N3807       N  0.90590571  0.69204861  0.10089510    -0.38100
N3808       N  0.47009908  0.85727839  0.04043698    -0.38100
N3809       N  0.95947350  0.76556284  0.14283975    -0.37500
N3810       N  0.94953196  0.78656908  0.99212470    -0.37500
C3811       C  0.84734309  0.80012943  0.92085355    -0.04200
C3812       C  0.82616697  0.76853391  0.91628474    -0.01300
C3813       C  0.82588449  0.74608553  0.93225732     0.03700
C3814       C  0.84639751  0.75496191  0.95336698    -0.02800
C3815       C  0.86797713  0.78657547  0.95764821    -0.01300
C3816       C  0.86962966  0.80889233  0.94058392     0.03700
C3817       C  0.80616933  0.75898322  0.89403172     0.38300
C3818       C  0.88697217  0.79643568  0.98044614     0.38300
C3819       C  0.89570919  0.84052347  0.94223339     0.36800
C3820       C  0.80494524  0.71366901  0.92641918     0.36800
N3821       N  0.91687938  0.86561951  0.94339746    -0.38100
N3822       N  0.78829368  0.68787311  0.92159766    -0.38100
N3823       N  0.90161180  0.80482522  0.99893448    -0.37500
N3824       N  0.79053140  0.75104079  0.87607623    -0.37500
loop_ 
_geom_bond_atom_site_label_1 
_geom_bond_atom_site_label_2 
_geom_bond_distance 
_geom_bond_site_symmetry_2 
_ccdc_geom_bond_type 
O1           Ni7   1.923       .  S
O1           C22   1.272       .  A
O2          Ni25   1.940   1_556  S
O2           C11   1.274       .  A
O3           Ni7   1.893       .  S
O3          Ni25   1.906       .  S
O3          Ni19   1.901       .  S
O3           H26   0.967       .  S
C4           O21   1.274       .  A
C4           O13   1.276       .  A
C4          C873   1.469       .  S
O5          Ni24   1.909       .  S
O5           C11   1.263       .  A
O6          Ni24   1.901   1_554  S
O6            C8   1.265       .  A
Ni7          O10   1.918       .  S
Ni7          O12   1.904       .  S
C8           O18   1.275       .  A
C8          C887   1.486       .  S
O9          Ni25   1.906       .  S
O9           C15   1.279       .  A
O10          C15   1.278       .  A
C11         C946   1.491       .  S
O12          C14   1.267   1_554  A
O13         Ni24   1.908       .  S
C14          O20   1.278       .  A
C14         C901   1.520       .  S
C15         C929   1.480       .  S
H16          O17   0.966       .  S
O17         Ni25   1.916   1_556  S
O17         Ni19   1.910   1_556  S
O17         Ni24   1.903       .  S
O18         Ni19   1.944       .  S
Ni19         O23   1.918       .  S
Ni19         O21   1.912   1_554  S
O20         Ni25   1.955   1_556  S
C22          O23   1.270       .  A
C22         C915   1.499       .  S
O27         Ni33   1.918       .  S
O27          C48   1.265       .  A
O28         Ni51   1.926       .  S
O28          C37   1.274       .  A
O29         Ni33   1.904       .  S
O29         Ni51   1.907       .  S
O29         Ni45   1.907       .  S
O29          H52   0.966       .  S
C30          O47   1.269       .  A
C30          O39   1.271       .  A
C30         C806   1.497       .  S
O31         Ni50   1.924       .  S
O31          C37   1.272       .  A
O32         Ni50   1.897       .  S
O32          C34   1.271       .  A
Ni33         O36   1.911       .  S
Ni33         O38   1.889       .  S
C34          O44   1.280       .  A
C34         C817   1.496       .  S
O35         Ni51   1.943       .  S
O35          C41   1.283       .  A
O36          C41   1.275       .  A
C37         C848   1.508       .  S
O38          C40   1.264       .  A
O39         Ni50   1.931       .  S
C40          O46   1.271       .  A
C40         C831   1.470       .  S
C41         C859   1.493       .  S
H42          O43   0.966       .  S
O43         Ni51   1.947       .  S
O43         Ni45   1.927       .  S
O43         Ni50   1.918       .  S
O44         Ni45   1.949       .  S
Ni45         O49   1.929       .  S
Ni45         O47   1.915       .  S
O46         Ni51   1.929       .  S
C48          O49   1.271       .  A
C48         C792   1.497       .  S
O53         Ni61   1.940   1_545  S
O53          C63   1.287       .  A
O54       Ni1017   1.937       .  S
O54          C64   1.286       .  A
O55         Ni61   1.916   1_545  S
O55          C65   1.278       .  A
O56       Ni1017   1.921       .  S
O56          C66   1.280       .  A
O57       Ni1018   1.940       .  S
O57          C66   1.286       .  A
O58         Ni62   1.939       .  S
O58          C65   1.286       .  A
O59       Ni1018   1.906       .  S
O59          C64   1.278       .  A
O60         Ni62   1.909       .  S
O60          C63   1.278       .  A
Ni61       O1010   1.937       .  S
Ni61       O1012   1.921       .  S
Ni61        Ni62   2.384   1_565  S
Ni62       O1013   1.940   1_545  S
Ni62       O1015   1.906   1_545  S
C63         C761   1.492       .  S
C64         C747   1.506       .  S
C65         C733   1.488       .  S
C66         C778   1.495       .  S
O67         Ni75   1.928       .  S
O67          C77   1.282       .  A
O68         Ni75   1.926       .  S
O68          C78   1.283       .  A
O69         Ni75   1.922       .  S
O69          C79   1.282       .  A
O70         Ni75   1.920       .  S
O70          C80   1.282       .  A
O71         Ni76   1.931       .  S
O71          C80   1.282       .  A
O72         Ni76   1.922       .  S
O72          C79   1.283       .  A
O73         Ni76   1.936       .  S
O73          C78   1.285       .  A
O74         Ni76   1.927       .  S
O74          C77   1.283       .  A
Ni75        Ni76   2.381       .  S
C77         C705   1.494       .  S
C78         C677   1.508       .  S
C79         C722   1.514       .  S
C80         C694   1.486       .  S
O81         Ni89   1.907       .  S
O81          C91   1.279       .  A
O82       Ni2001   1.909       .  S
O82          C92   1.280       .  A
O83       Ni2001   1.906       .  S
O83          C93   1.279       .  A
O84         Ni89   1.903       .  S
O84          C94   1.279       .  A
O85         Ni90   1.913       .  S
O85          C94   1.281       .  A
O86       Ni2002   1.914       .  S
O86          C93   1.280       .  A
O87       Ni2002   1.912       .  S
O87          C92   1.278       .  A
O88         Ni90   1.911       .  S
O88          C91   1.280       .  A
Ni89       O1994   1.909   1_455  S
Ni89       O1995   1.906   1_455  S
Ni89        Ni90   2.390       .  S
Ni90       O1998   1.914   1_455  S
Ni90       O1999   1.912   1_455  S
C91         C635   1.472       .  S
C92         C666   1.469       .  S
C93         C621   1.472       .  S
C94         C649   1.495       .  S
C95         C610   1.506       .  S
C95         C100   1.406       .  A
C95        C2008   1.420   1_455  A
C96         C789   1.495       .  S
C96          C97   1.406       .  A
C96        C2007   1.420       .  A
C97          C98   1.405       .  A
C97         H102   1.084       .  S
C98         C764   1.513       .  S
C98        C2011   1.428       .  A
C99         C719   1.507       .  S
C99         C100   1.411       .  A
C99        C2010   1.428   1_455  A
C100        H101   1.084       .  S
C103        C820   1.492       .  S
C103        C108   1.415       .  A
C103       C1060   1.414       .  A
C104        C593   1.490       .  S
C104        C105   1.391       .  A
C104       C1059   1.414       .  A
C105        C106   1.396       .  A
C105        H110   1.085       .  S
C106        C652   1.483       .  S
C106       C1063   1.421       .  A
C107        C708   1.516       .  S
C107        C108   1.414       .  A
C107       C1062   1.421       .  A
C108        H109   1.083       .  S
C111        C582   1.492       .  S
C111        C112   1.416       .  A
C111        C116   1.409       .  A
C112        C943   1.493       .  S
C112        C113   1.398       .  A
C113        C114   1.403       .  A
C113        H118   1.084       .  S
C114        C624   1.497       .  S
C114        C115   1.423       .  A
C115        C750   1.505       .  S
C115        C116   1.404       .  A
C116        H117   1.084       .  S
C119        C862   1.504       .  S
C119        C120   1.422       .  A
C119        C124   1.403       .  A
C120        C565   1.489       .  S
C120        C121   1.414       .  A
C121        C122   1.404       .  A
C121        H126   1.084       .  S
C122        C775   1.504       .  S
C122        C123   1.411       .  A
C123        C663   1.479       .  S
C123        C124   1.398       .  A
C124        H125   1.085       .  S
C127        C876   1.486       .  S
C127        C132   1.410       .  A
C127       C1084   1.421   1_545  A
C128        C551   1.505       .  S
C128        C129   1.407       .  A
C128       C1083   1.421       .  A
C129        C130   1.405       .  A
C129        H134   1.084       .  S
C130        C638   1.480       .  S
C130       C1087   1.409       .  A
C131        C691   1.497       .  S
C131        C132   1.392       .  A
C131       C1086   1.409   1_545  A
C132        H133   1.085       .  S
C135        C904   1.513       .  S
C135        C140   1.413       .  A
C135       C2048   1.432       .  A
C136        C537   1.513       .  S
C136        C137   1.417       .  A
C136       C2047   1.432   1_455  A
C137        C138   1.405       .  A
C137        H142   1.084       .  S
C138        C680   1.509       .  S
C138       C2051   1.414   1_455  A
C139        C736   1.497       .  S
C139        C140   1.406       .  A
C139       C2050   1.414       .  A
C140        H141   1.084       .  S
O143       Ni149   1.916       .  S
O143        C164   1.271       .  A
O144       Ni167   1.927       .  S
O144        C153   1.274       .  A
O145       Ni149   1.908       .  S
O145       Ni167   1.921       .  S
O145       Ni161   1.933       .  S
O145        H168   0.974       .  S
C146        O163   1.281       .  A
C146        O155   1.277       .  A
C146        C498   1.482       .  S
O147       Ni166   1.913       .  S
O147        C153   1.267       .  A
O148       Ni166   1.910       .  S
O148        C150   1.268       .  A
Ni149       O152   1.923       .  S
Ni149       O154   1.887       .  S
C150        O160   1.277       .  A
C150        C607   1.505       .  S
O151       Ni167   1.926       .  S
O151        C157   1.271       .  A
O152        C157   1.265       .  A
C153        C512   1.481       .  S
O154        C156   1.271       .  A
O155       Ni166   1.915       .  S
C156        O162   1.287       .  A
C156        C526   1.497       .  S
C157        C596   1.485       .  S
H158        O159   0.964       .  S
O159       Ni167   1.908       .  S
O159       Ni161   1.897       .  S
O159       Ni166   1.893       .  S
O160       Ni161   1.950       .  S
Ni161       O165   1.919       .  S
Ni161       O163   1.937       .  S
O162       Ni167   1.980       .  S
C164        O165   1.272       .  A
C164        C568   1.485       .  S
O169       Ni175   1.925       .  S
O169        C190   1.269       .  A
O170       Ni193   1.922       .  S
O170        C179   1.274       .  A
O171       Ni175   1.911       .  S
O171       Ni193   1.920   1_556  S
O171       Ni187   1.916       .  S
O171        H194   0.966       .  S
C172        O189   1.277       .  A
C172        O181   1.279       .  A
C172        C467   1.497       .  S
O173       Ni192   1.945       .  S
O173        C179   1.276       .  A
O174       Ni192   1.906   1_556  S
O174        C176   1.269       .  A
Ni175       O178   1.917       .  S
Ni175       O180   1.912       .  S
C176        O186   1.276       .  A
C176        C540   1.502       .  S
O177       Ni193   1.920   1_556  S
O177        C183   1.273       .  A
O178        C183   1.274       .  A
C179        C453   1.507       .  S
O180        C182   1.270   1_556  A
O181       Ni192   1.934       .  S
C182        O188   1.280       .  A
C182        C484   1.500       .  S
C183        C579   1.477       .  S
H184        O185   0.965       .  S
O185       Ni193   1.901       .  S
O185       Ni187   1.913   1_554  S
O185       Ni192   1.907       .  S
O186       Ni187   1.951       .  S
Ni187       O191   1.927       .  S
Ni187       O189   1.912   1_556  S
O188       Ni193   1.952       .  S
C190        O191   1.272       .  A
C190        C554   1.490       .  S
O195       Ni203   1.926       .  S
O195        C205   1.280       .  A
O196      Ni2115   1.925   1_455  S
O196        C206   1.280       .  A
O197      Ni2115   1.941   1_455  S
O197        C207   1.287       .  A
O198       Ni203   1.946       .  S
O198        C208   1.288       .  A
O199       Ni204   1.910       .  S
O199        C208   1.279       .  A
O200      Ni2116   1.906   1_455  S
O200        C207   1.279       .  A
O201      Ni2116   1.942   1_455  S
O201        C206   1.286       .  A
O202       Ni204   1.942       .  S
O202        C205   1.286       .  A
Ni203      O2108   1.925       .  S
Ni203      O2109   1.941       .  S
Ni203      Ni204   2.382       .  S
Ni204      O2112   1.906       .  S
Ni204      O2113   1.942       .  S
C205        C411   1.498       .  S
C206        C428   1.496       .  S
C207        C442   1.505       .  S
C208        C397   1.510       .  S
O209       Ni217   1.914       .  S
O209        C219   1.280       .  A
O210       Ni217   1.914       .  S
O210        C220   1.280       .  A
O211       Ni217   1.896       .  S
O211        C221   1.277       .  A
O212       Ni217   1.901       .  S
O212        C222   1.278       .  A
O213       Ni218   1.913       .  S
O213        C222   1.280       .  A
O214       Ni218   1.906       .  S
O214        C221   1.280       .  A
O215       Ni218   1.919       .  S
O215        C220   1.281       .  A
O216       Ni218   1.926       .  S
O216        C219   1.282       .  A
Ni217      Ni218   2.394       .  S
C219        C372   1.479       .  S
C220        C355   1.477       .  S
C221        C383   1.471       .  S
C222        C341   1.469       .  S
C223        C523   1.500       .  S
C223        C228   1.412       .  A
C223       C1180   1.443       .  A
C224        C803   1.544       .  S
C224        C225   1.428       .  A
C224       C1179   1.443   1_545  A
C225        C226   1.406       .  A
C225        H230   1.078       .  S
C226        C400   1.506       .  S
C226       C1183   1.411   1_545  A
C227        C369   1.502       .  S
C227        C228   1.398       .  A
C227       C1182   1.411       .  A
C228        H229   1.085       .  S
O231       Ni239   1.920       .  S
O231        C241   1.283       .  A
O232      Ni1195   1.917   1_545  S
O232        C242   1.280       .  A
O233      Ni1195   1.919   1_545  S
O233        C243   1.281       .  A
O234       Ni239   1.910       .  S
O234        C244   1.279       .  A
O235       Ni240   1.911       .  S
O235        C244   1.281       .  A
O236      Ni1196   1.918       .  S
O236        C243   1.281       .  A
O237      Ni1196   1.913       .  S
O237        C242   1.280       .  A
O238       Ni240   1.906       .  S
O238        C241   1.278       .  A
Ni239      O1188   1.917       .  S
Ni239      O1189   1.919       .  S
Ni239      Ni240   2.386       .  S
Ni240      O1192   1.918       .  S
Ni240      O1193   1.913       .  S
C241        C285   1.485       .  S
C242        C327   1.477       .  S
C243        C313   1.482       .  S
C244        C299   1.502       .  S
C245        C481   1.502       .  S
C245        C250   1.396       .  A
C245       C1202   1.423       .  A
C246        C918   1.491   1_565  S
C246        C247   1.416   1_565  A
C246       C1201   1.423       .  A
C247        C248   1.405       .  A
C247        H252   1.084       .  S
C248        C414   1.514       .  S
C248       C1205   1.414   1_545  A
C249        C386   1.475       .  S
C249        C250   1.399       .  A
C249       C1204   1.414       .  A
C250        H251   1.085       .  S
C253        C845   1.504       .  S
C253        C254   1.425       .  A
C253        C258   1.404       .  A
C254        C495   1.501       .  S
C254        C255   1.419       .  A
C255        C256   1.407       .  A
C255        H260   1.084       .  S
C256        C425   1.508       .  S
C256        C257   1.412       .  A
C257        C316   1.485       .  S
C257        C258   1.397       .  A
C258        H259   1.085       .  S
C261        C456   1.502       .  S
C261        C262   1.421       .  A
C261        C266   1.407       .  A
C262        C890   1.499       .  S
C262        C263   1.408       .  A
C263        C264   1.406       .  A
C263        H268   1.084       .  S
C264        C330   1.506       .  S
C264        C265   1.424       .  A
C265        C439   1.507       .  S
C265        C266   1.406       .  A
C266        H267   1.084       .  S
C269        C834   1.492       .  S
C269        C274   1.403       .  A
C269       C2182   1.425       .  A
C270        C509   1.495       .  S
C270        C271   1.409       .  A
C270       C2181   1.425   1_455  A
C271        C272   1.398       .  A
C271        H276   1.085       .  S
C272        C288   1.490       .  S
C272       C2185   1.410   1_455  A
C273        C344   1.481       .  S
C273        C274   1.390       .  A
C273       C2184   1.410       .  A
C274        H275   1.085       .  S
C277        C932   1.481       .  S
C277        C282   1.395       .  A
C277       C2190   1.411       .  A
C278        C470   1.488       .  S
C278        C279   1.398       .  A
C278       C2189   1.411   1_455  A
C279        C280   1.404       .  A
C279        H284   1.084       .  S
C280        C302   1.488       .  S
C280       C2193   1.422   1_455  A
C281        C358   1.497       .  S
C281        C282   1.397       .  A
C281       C2192   1.422       .  A
C282        H283   1.085       .  S
C285        C286   1.414       .  A
C285        C290   1.411       .  A
C286        C287   1.413       .  A
C286        C291   1.451       .  S
C287        C288   1.413       .  A
C287        C294   1.447       .  S
C288        C289   1.407       .  A
C289        C290   1.401       .  A
C289        C292   1.448       .  S
C290        C293   1.449       .  S
C291        N298   1.157       .  T
C292        N297   1.157       .  T
C293       N1251   1.158       .  T
C294        N296   1.156       .  T
N295       C1249   1.158       .  T
C299        C300   1.424       .  A
C299        C304   1.424       .  A
C300        C301   1.406       .  A
C300        C305   1.448       .  S
C301        C302   1.404       .  A
C301       C2220   1.452       .  S
C302        C303   1.411       .  A
C303        C304   1.411       .  A
C303        C306   1.453       .  S
C304        C307   1.452       .  S
C305       N2224   1.156       .  T
C306        N311   1.157       .  T
C307        N309   1.158       .  T
C308       C2213   1.452       .  S
C308        N310   1.157       .  T
N312       C2217   1.156       .  T
C313        C314   1.409       .  A
C313        C318   1.413       .  A
C314        C315   1.406       .  A
C314        C319   1.444       .  S
C315        C316   1.409       .  A
C315        C322   1.452       .  S
C316        C317   1.411       .  A
C317        C318   1.411       .  A
C317        C320   1.449       .  S
C318        C321   1.450       .  S
C319       N1282   1.155       .  T
C320        N325   1.157       .  T
C321        N323   1.157       .  T
C322        N324   1.157       .  T
N326       C1275   1.155       .  T
C327        C328   1.406       .  A
C327        C332   1.408       .  A
C328        C329   1.410       .  A
C328        C333   1.448       .  S
C329        C330   1.416       .  A
C329        C336   1.448       .  S
C330        C331   1.421       .  A
C331        C332   1.411       .  A
C331        C334   1.448       .  S
C332        C335   1.453       .  S
C333        N340   1.156       .  T
C334        N339   1.157       .  T
C335        N337   1.157       .  T
C336        N338   1.157       .  T
C341        C342   1.412       .  A
C341        C346   1.409       .  A
C342        C343   1.408       .  A
C342        C347   1.450       .  S
C343        C344   1.410       .  A
C343        C350   1.450       .  S
C344        C345   1.409       .  A
C345        C346   1.401       .  A
C345       C2260   1.447       .  S
C346        C349   1.453       .  S
C347        N354   1.157       .  T
C348       C2257   1.447       .  S
C348        N353   1.156       .  T
C349       N2263   1.157       .  T
C350        N352   1.157       .  T
N351       C2261   1.157       .  T
C355        C356   1.411       .  A
C355        C360   1.410       .  A
C356        C357   1.408       .  A
C356        C361   1.451       .  S
C357        C358   1.416       .  A
C357        C364   1.452       .  S
C358        C359   1.414       .  A
C359        C360   1.409       .  A
C359       C2274   1.449       .  S
C360        C363   1.451       .  S
C361        N368   1.157       .  T
C362       C2271   1.449       .  S
C362        N367   1.157   1_655  T
C363       N2277   1.157       .  T
C364        N366   1.157       .  T
N365       C2275   1.157       .  T
C369        C370   1.418       .  A
C369        C374   1.416       .  A
C370        C371   1.408       .  A
C370        C375   1.445       .  S
C371        C372   1.403       .  A
C371        C378   1.451       .  S
C372        C373   1.409       .  A
C373        C374   1.414       .  A
C373        C376   1.448       .  S
C374        C377   1.448       .  S
C375        N382   1.155       .  T
C376        N381   1.157       .  T
C377        N379   1.157       .  T
C378        N380   1.157       .  T
C383        C384   1.415       .  A
C383        C388   1.412       .  A
C384        C385   1.402       .  A
C384        C389   1.453       .  S
C385        C386   1.408       .  A
C385        C392   1.451       .  S
C386        C387   1.411       .  A
C387        C388   1.403       .  A
C387        C390   1.452       .  S
C388        C391   1.452       .  S
C389        N396   1.157       .  T
C390        N395   1.157       .  T
C391        N393   1.157       .  T
C392        N394   1.157       .  T
C397        C398   1.419       .  A
C397        C402   1.424       .  A
C398        C399   1.419       .  A
C398        C403   1.450       .  S
C399        C400   1.415       .  A
C399        C406   1.450       .  S
C400        C401   1.410       .  A
C401        C402   1.413       .  A
C401       C1360   1.451   1_545  S
C402       C1361   1.452       .  S
C403        N410   1.157       .  T
C404       C1357   1.451       .  S
C404        N409   1.157       .  T
C405       C1358   1.452       .  S
C405        N407   1.157       .  T
C406        N408   1.157       .  T
C411        C412   1.414       .  A
C411        C416   1.411       .  A
C412        C413   1.419       .  A
C412        C417   1.449       .  S
C413        C414   1.416       .  A
C413        C420   1.450       .  S
C414        C415   1.416       .  A
C415        C416   1.418       .  A
C415       C1374   1.448       .  S
C416       C1375   1.449       .  S
C417        N424   1.157       .  T
C418       C1371   1.448       .  S
C418        N423   1.157       .  T
C419       C1372   1.449       .  S
C419        N421   1.157       .  T
C420        N422   1.157       .  T
C425        C426   1.415       .  A
C425        C430   1.414       .  A
C426        C427   1.418       .  A
C426        C431   1.449       .  S
C427        C428   1.413       .  A
C427        C434   1.448       .  S
C428        C429   1.413       .  A
C429        C430   1.416       .  A
C429        C432   1.448       .  S
C430        C433   1.449       .  S
C431        N438   1.157       .  T
C432        N437   1.156   1_455  T
C433        N435   1.157       .  T
C434        N436   1.157       .  T
C439        C440   1.418       .  A
C439        C444   1.412       .  A
C440        C441   1.417       .  A
C440        C445   1.450       .  S
C441        C442   1.416       .  A
C441        C448   1.450       .  S
C442        C443   1.421       .  A
C443        C444   1.412       .  A
C443        C446   1.451       .  S
C444        C447   1.452       .  S
C445        N452   1.157       .  T
C446       N2363   1.157       .  T
C447        N449   1.157       .  T
C448        N450   1.157       .  T
N451       C2358   1.157       .  T
C453        C454   1.416       .  A
C453        C458   1.420       .  A
C454        C455   1.418       .  A
C454        C459   1.451       .  S
C455        C456   1.418       .  A
C455        C462   1.451       .  S
C456        C457   1.410       .  A
C457        C458   1.417       .  A
C457        C460   1.449       .  S
C458        C461   1.449       .  S
C459        N466   1.157       .  T
C460        N465   1.157       .  T
C461        N463   1.156   1_554  T
C462        N464   1.157       .  T
C467        C468   1.417       .  A
C467        C472   1.423       .  A
C468        C469   1.412       .  A
C468        C473   1.449       .  S
C469        C470   1.409       .  A
C469        C476   1.449       .  S
C470        C471   1.408       .  A
C471        C472   1.408       .  A
C471        C474   1.453       .  S
C472        C475   1.453       .  S
C473        N480   1.157   1_554  T
C474        N479   1.157       .  T
C475        N477   1.158       .  T
C476        N478   1.157       .  T
C481        C482   1.416       .  A
C481        C486   1.413       .  A
C482        C483   1.420       .  A
C482        C487   1.449       .  S
C483        C484   1.416       .  A
C483        C490   1.450       .  S
C484        C485   1.415       .  A
C485        C486   1.413       .  A
C485        C488   1.450       .  S
C486        C489   1.449       .  S
C487        N494   1.157       .  T
C488        N493   1.157   1_554  T
C489        N491   1.157       .  T
C490        N492   1.157       .  T
C495        C496   1.418       .  A
C495        C500   1.419       .  A
C496        C497   1.415       .  A
C496        C501   1.446       .  S
C497        C498   1.407       .  A
C497        C504   1.451       .  S
C498        C499   1.410       .  A
C499        C500   1.410       .  A
C499        C502   1.452       .  S
C500        C503   1.453       .  S
C501        N508   1.157       .  T
C502        N507   1.157       .  T
C503        N505   1.157       .  T
C504        N506   1.157       .  T
C509        C510   1.415       .  A
C509        C514   1.417       .  A
C510        C511   1.416       .  A
C510       C2427   1.447       .  S
C511        C512   1.409       .  A
C511        C518   1.450       .  S
C512        C513   1.410       .  A
C513        C514   1.409       .  A
C513        C516   1.453       .  S
C514        C517   1.450       .  S
C515       C2422   1.447       .  S
C515        N522   1.157       .  T
C516        N521   1.157       .  T
C517        N519   1.157       .  T
C518        N520   1.157       .  T
C523        C524   1.418       .  A
C523        C528   1.413       .  A
C524        C525   1.421       .  A
C524        C529   1.449       .  S
C525        C526   1.418       .  A
C525        C532   1.449       .  S
C526        C527   1.412       .  A
C527        C528   1.405       .  A
C527        C530   1.453       .  S
C528        C531   1.447       .  S
C529       N1492   1.157       .  T
C530        N535   1.157       .  T
C531        N533   1.156       .  T
C532        N534   1.157       .  T
N536       C1485   1.157   1_545  T
C537        C538   1.418       .  A
C537        C542   1.421       .  A
C538        C539   1.422       .  A
C538        C543   1.448       .  S
C539        C540   1.416       .  A
C539        C546   1.449       .  S
C540        C541   1.411       .  A
C541        C542   1.411       .  A
C541        C544   1.450       .  S
C542        C545   1.453       .  S
C543        N550   1.157       .  T
C544        N549   1.157       .  T
C545        N547   1.157       .  T
C546        N548   1.157       .  T
C551        C552   1.417       .  A
C551        C556   1.418       .  A
C552        C553   1.418       .  A
C552        C557   1.447       .  S
C553        C554   1.410       .  A
C553        C560   1.449       .  S
C554        C555   1.411       .  A
C555        C556   1.412       .  A
C555        C558   1.452       .  S
C556        C559   1.451       .  S
C557        N564   1.157       .  T
C558        N563   1.157       .  T
C559        N561   1.157       .  T
C560        N562   1.157   1_556  T
C565        C566   1.410       .  A
C565        C570   1.415       .  A
C566        C567   1.409       .  A
C566        C571   1.450       .  S
C567        C568   1.414       .  A
C567        C574   1.452       .  S
C568        C569   1.411       .  A
C569        C570   1.414       .  A
C569        C572   1.451       .  S
C570        C573   1.450       .  S
C571        N578   1.157       .  T
C572        N577   1.157       .  T
C573        N575   1.157       .  T
C574        N576   1.157       .  T
C579        C580   1.408       .  A
C579        C584   1.406       .  A
C580        C581   1.409       .  A
C580        C585   1.452       .  S
C581        C582   1.417       .  A
C581        C588   1.451       .  S
C582        C583   1.415       .  A
C583        C584   1.412       .  A
C583        C586   1.445       .  S
C584        C587   1.451       .  S
C585        N592   1.157       .  T
C586        N591   1.157       .  T
C587        N589   1.157   1_556  T
C588        N590   1.157       .  T
C593        C594   1.411       .  A
C593        C598   1.416       .  A
C594        C595   1.405       .  A
C594        C599   1.451       .  S
C595        C596   1.415       .  A
C595        C602   1.454       .  S
C596        C597   1.411       .  A
C597        C598   1.417       .  A
C597        C600   1.450       .  S
C598        C601   1.449       .  S
C599       N1562   1.157       .  T
C600        N605   1.157       .  T
C601        N603   1.157       .  T
C602        N604   1.157       .  T
N606       C1555   1.157       .  T
C607        C608   1.419       .  A
C607        C612   1.415       .  A
C608        C609   1.416       .  A
C608        C613   1.452       .  S
C609        C610   1.411       .  A
C609        C616   1.448       .  S
C610        C611   1.418       .  A
C611        C612   1.421       .  A
C611        C614   1.449       .  S
C612        C615   1.450       .  S
C613        N620   1.157       .  T
C614        N619   1.157       .  T
C615        N617   1.157       .  T
C616        N618   1.157       .  T
C621        C622   1.409       .  A
C621        C626   1.408       .  A
C622        C623   1.408       .  A
C622        C627   1.452       .  S
C623        C624   1.419       .  A
C623        C630   1.451       .  S
C624        C625   1.414       .  A
C625        C626   1.406       .  A
C625        C628   1.449       .  S
C626        C629   1.450       .  S
C627        N634   1.157       .  T
C628        N633   1.157       .  T
C629        N631   1.157       .  T
C630        N632   1.157       .  T
C635        C636   1.410       .  A
C635        C640   1.412       .  A
C636        C637   1.407       .  A
C636        C641   1.451       .  S
C637        C638   1.411       .  A
C637        C644   1.449       .  S
C638        C639   1.410       .  A
C639        C640   1.406       .  A
C639       C1598   1.450       .  S
C640       C1599   1.452       .  S
C641        N648   1.157       .  T
C642       C1595   1.450       .  S
C642        N647   1.157       .  T
C643       C1596   1.452       .  S
C643        N645   1.157       .  T
C644        N646   1.157       .  T
C649        C650   1.421       .  A
C649        C654   1.424       .  A
C650        C651   1.406       .  A
C650        C655   1.452       .  S
C651        C652   1.411       .  A
C651        C658   1.453       .  S
C652        C653   1.405       .  A
C653        C654   1.406       .  A
C653       C1612   1.453       .  S
C654       C1613   1.449       .  S
C655        N662   1.158       .  T
C656       C1609   1.453   1_545  S
C656        N661   1.157       .  T
C657       C1610   1.449       .  S
C657        N659   1.156       .  T
C658        N660   1.157       .  T
C663        C664   1.409       .  A
C663        C668   1.411       .  A
C664        C665   1.402       .  A
C664        C669   1.449       .  S
C665        C666   1.406       .  A
C665        C672   1.448       .  S
C666        C667   1.410       .  A
C667        C668   1.409       .  A
C667        C670   1.450       .  S
C668        C671   1.449       .  S
C669        N676   1.157       .  T
C670        N675   1.157       .  T
C671        N673   1.157       .  T
C672       N2586   1.156       .  T
N674       C2584   1.156   1_455  T
C677        C678   1.418       .  A
C677        C682   1.420       .  A
C678        C679   1.413       .  A
C678        C683   1.450       .  S
C679        C680   1.413       .  A
C679       C2598   1.449       .  S
C680        C681   1.413       .  A
C681        C682   1.420       .  A
C681        C684   1.450       .  S
C682        C685   1.449       .  S
C683       N2602   1.157       .  T
C684        N689   1.157       .  T
C685        N687   1.157       .  T
C686       C2591   1.449       .  S
C686        N688   1.157       .  T
N690       C2595   1.157       .  T
C691        C692   1.412       .  A
C691        C696   1.414       .  A
C692        C693   1.410       .  A
C692        C697   1.447       .  S
C693        C694   1.406       .  A
C693        C700   1.447       .  S
C694        C695   1.411       .  A
C695        C696   1.416       .  A
C695        C698   1.449       .  S
C696        C699   1.448       .  S
C697        N704   1.157       .  T
C698        N703   1.157       .  T
C699        N701   1.157       .  T
C700        N702   1.156       .  T
C705        C706   1.412       .  A
C705        C710   1.411       .  A
C706        C707   1.416       .  A
C706        C711   1.452       .  S
C707        C708   1.419       .  A
C707        C714   1.448       .  S
C708        C709   1.419       .  A
C709        C710   1.417       .  A
C709       C1668   1.449       .  S
C710        C713   1.450       .  S
C711        N718   1.157       .  T
C712       C1665   1.449       .  S
C712        N717   1.157       .  T
C713        N715   1.157       .  T
C714        N716   1.156       .  T
C719        C720   1.409       .  A
C719        C724   1.415       .  A
C720        C721   1.414       .  A
C720        C725   1.452       .  S
C721        C722   1.425       .  A
C721        C728   1.448       .  S
C722        C723   1.424       .  A
C723        C724   1.415       .  A
C723        C726   1.452       .  S
C724       C2639   1.451       .  S
C725        N732   1.157   1_455  T
C726       N2643   1.157       .  T
C727       C2636   1.451       .  S
C727        N729   1.157       .  T
C728        N730   1.156       .  T
N731       C2638   1.157       .  T
C733        C734   1.413       .  A
C733        C738   1.412       .  A
C734        C735   1.414       .  A
C734        C739   1.448       .  S
C735        C736   1.412       .  A
C735        C742   1.450       .  S
C736        C737   1.411       .  A
C737        C738   1.412       .  A
C737       C2652   1.449       .  S
C738        C741   1.449       .  S
C739        N746   1.156       .  T
C740       C2649   1.449       .  S
C740        N745   1.157       .  T
C741       N2655   1.157       .  T
C742        N744   1.157       .  T
N743       C2653   1.157       .  T
C747        C748   1.424       .  A
C747        C752   1.418       .  A
C748        C749   1.411       .  A
C748        C753   1.452       .  S
C749        C750   1.410       .  A
C749        C756   1.452       .  S
C750        C751   1.417       .  A
C751        C752   1.417       .  A
C751        C754   1.450       .  S
C752        C755   1.451       .  S
C753        N760   1.157       .  T
C754        N759   1.157       .  T
C755        N757   1.158       .  T
C756        N758   1.157       .  T
C761        C762   1.411       .  A
C761        C766   1.415       .  A
C762        C763   1.417       .  A
C762        C767   1.451       .  S
C763        C764   1.422       .  A
C763        C770   1.449       .  S
C764        C765   1.414       .  A
C765        C766   1.410       .  A
C765       C2680   1.449       .  S
C766       C2681   1.451       .  S
C767        N774   1.158       .  T
C768       C2677   1.449   1_455  S
C768        N773   1.157       .  T
C769       C2678   1.451       .  S
C769        N771   1.158       .  T
C770        N772   1.157       .  T
C775        C776   1.411       .  A
C775        C780   1.413       .  A
C776        C777   1.416       .  A
C776        C781   1.449       .  S
C777        C778   1.415       .  A
C777        C784   1.448       .  S
C778        C779   1.413       .  A
C779        C780   1.416       .  A
C779        C782   1.450       .  S
C780        C783   1.448       .  S
C781        N788   1.157       .  T
C782       N1743   1.157       .  T
C783        N785   1.157       .  T
C784        N786   1.156       .  T
N787       C1738   1.157       .  T
C789        C790   1.416       .  A
C789        C794   1.411       .  A
C790        C791   1.414       .  A
C790        C795   1.450       .  S
C791        C792   1.413       .  A
C791        C798   1.450       .  S
C792        C793   1.420       .  A
C793        C794   1.414       .  A
C793        C796   1.453       .  S
C794       C2709   1.450       .  S
C795        N802   1.157       .  T
C796        N801   1.158       .  T
C797       C2706   1.450       .  S
C797        N799   1.157       .  T
C798        N800   1.157       .  T
C803        C804   1.422       .  A
C803        C808   1.412       .  A
C804        C805   1.416       .  A
C804        C809   1.452       .  S
C805        C806   1.416       .  A
C805        C812   1.449       .  S
C806        C807   1.416       .  A
C807        C808   1.412       .  A
C807        C810   1.451       .  S
C808       C1767   1.447   1_545  S
C809        N816   1.158       .  T
C810        N815   1.157       .  T
C811       C1764   1.447       .  S
C811        N813   1.158       .  T
C812        N814   1.157       .  T
C817        C818   1.417       .  A
C817        C822   1.416       .  A
C818        C819   1.407       .  A
C818        C823   1.451       .  S
C819        C820   1.410       .  A
C819        C826   1.451       .  S
C820        C821   1.413       .  A
C821        C822   1.416       .  A
C821        C824   1.447       .  S
C822        C825   1.451       .  S
C823        N830   1.157       .  T
C824       N1785   1.157       .  T
C825        N827   1.158       .  T
C826        N828   1.157       .  T
N829       C1780   1.157       .  T
C831        C832   1.402       .  A
C831        C836   1.408       .  A
C832        C833   1.406       .  A
C832        C837   1.451       .  S
C833        C834   1.421       .  A
C833        C840   1.448       .  S
C834        C835   1.415       .  A
C835        C836   1.410       .  A
C835        C838   1.446       .  S
C836        C839   1.451       .  S
C837        N844   1.157       .  T
C838        N843   1.157       .  T
C839        N841   1.157       .  T
C840        N842   1.156       .  T
C845        C846   1.414       .  A
C845        C850   1.417       .  A
C846        C847   1.422       .  A
C846        C851   1.448       .  S
C847        C848   1.419       .  A
C847        C854   1.450       .  S
C848        C849   1.420       .  A
C849        C850   1.410       .  A
C849        C852   1.453       .  S
C850        C853   1.454       .  S
C851        N858   1.157       .  T
C852        N857   1.158       .  T
C853        N855   1.157       .  T
C854        N856   1.157       .  T
C859        C860   1.412       .  A
C859        C864   1.414       .  A
C860        C861   1.421       .  A
C860        C865   1.450       .  S
C861        C862   1.418       .  A
C861        C868   1.447       .  S
C862        C863   1.416       .  A
C863        C864   1.409       .  A
C863        C866   1.449       .  S
C864        C867   1.454       .  S
C865        N872   1.157       .  T
C866        N871   1.156       .  T
C867        N869   1.157       .  T
C868        N870   1.157       .  T
C873        C874   1.409       .  A
C873        C878   1.408       .  A
C874        C875   1.411       .  A
C874        C879   1.452       .  S
C875        C876   1.415       .  A
C875        C882   1.447       .  S
C876        C877   1.416       .  A
C877        C878   1.401       .  A
C877        C880   1.451       .  S
C878        C881   1.454       .  S
C879        N886   1.157       .  T
C880        N885   1.157       .  T
C881        N883   1.158       .  T
C882        N884   1.157       .  T
C887        C888   1.413       .  A
C887        C892   1.408       .  A
C888        C889   1.416       .  A
C888        C893   1.451       .  S
C889        C890   1.413       .  A
C889        C896   1.447       .  S
C890        C891   1.419       .  A
C891        C892   1.412       .  A
C891        C894   1.451       .  S
C892        C895   1.451       .  S
C893        N900   1.157       .  T
C894        N899   1.158       .  T
C895        N897   1.157       .  T
C896        N898   1.157       .  T
C901        C902   1.427       .  A
C901        C906   1.421       .  A
C902        C903   1.416       .  A
C902        C907   1.452       .  S
C903        C904   1.411       .  A
C903        C910   1.450       .  S
C904        C905   1.419       .  A
C905        C906   1.421       .  A
C905        C908   1.452       .  S
C906        C909   1.451       .  S
C907        N914   1.158   1_556  T
C908       N2825   1.157       .  T
C909        N911   1.158       .  T
C910        N912   1.157       .  T
N913       C2820   1.157       .  T
C915        C916   1.416       .  A
C915        C920   1.417       .  A
C916        C917   1.406       .  A
C916        C921   1.453       .  S
C917        C918   1.410       .  A
C917        C924   1.448       .  S
C918        C919   1.415       .  A
C919        C920   1.418       .  A
C919        C922   1.450       .  S
C920        C923   1.450       .  S
C921        N928   1.157   1_554  T
C922        N927   1.157       .  T
C923        N925   1.158       .  T
C924       N1882   1.157       .  T
N926       C1880   1.157       .  T
C929        C930   1.410       .  A
C929        C934   1.420       .  A
C930        C931   1.402       .  A
C930        C935   1.451       .  S
C931        C932   1.409       .  A
C931        C938   1.448       .  S
C932        C933   1.411       .  A
C933        C934   1.406       .  A
C933        C936   1.453       .  S
C934        C937   1.453       .  S
C935        N942   1.157   1_554  T
C936        N941   1.157       .  T
C937        N939   1.158       .  T
C938       N2852   1.157       .  T
N940       C2850   1.157       .  T
C943        C944   1.409       .  A
C943        C948   1.416       .  A
C944        C945   1.412       .  A
C944        C949   1.450       .  S
C945        C946   1.418       .  A
C945        C952   1.452       .  S
C946        C947   1.410       .  A
C947        C948   1.414       .  A
C947        C950   1.448       .  S
C948        C951   1.450       .  S
C949        N956   1.157       .  T
C950        N955   1.157       .  T
C951        N953   1.158       .  T
C952        N954   1.157       .  T
O957       Ni963   1.923       .  S
O957        C978   1.272       .  A
O958       Ni981   1.940   1_556  S
O958        C967   1.274       .  A
O959       Ni963   1.893       .  S
O959       Ni981   1.906       .  S
O959       Ni975   1.901       .  S
O959        H982   0.967       .  S
C960        O977   1.274       .  A
C960        O969   1.276       .  A
C960       C1829   1.469       .  S
O961       Ni980   1.909       .  S
O961        C967   1.263       .  A
O962       Ni980   1.901   1_554  S
O962        C964   1.265       .  A
Ni963       O966   1.918       .  S
Ni963       O968   1.904       .  S
C964        O974   1.275       .  A
C964       C1843   1.486       .  S
O965       Ni981   1.906       .  S
O965        C971   1.279       .  A
O966        C971   1.278       .  A
C967       C1902   1.491       .  S
O968        C970   1.267   1_554  A
O969       Ni980   1.908       .  S
C970        O976   1.278       .  A
C970       C1857   1.520       .  S
C971       C1885   1.480       .  S
H972        O973   0.966       .  S
O973       Ni981   1.916   1_556  S
O973       Ni975   1.910   1_556  S
O973       Ni980   1.903       .  S
O974       Ni975   1.944       .  S
Ni975       O979   1.918       .  S
Ni975       O977   1.912   1_554  S
O976       Ni981   1.955   1_556  S
C978        O979   1.270       .  A
C978       C1871   1.499       .  S
O983       Ni989   1.918       .  S
O983       C1004   1.265       .  A
O984      Ni1007   1.926       .  S
O984        C993   1.274       .  A
O985       Ni989   1.904       .  S
O985      Ni1007   1.907       .  S
O985      Ni1001   1.907       .  S
O985       H1008   0.966       .  S
C986       O1003   1.269       .  A
C986        O995   1.271       .  A
C986       C1762   1.497       .  S
O987      Ni1006   1.924       .  S
O987        C993   1.272       .  A
O988      Ni1006   1.897       .  S
O988        C990   1.271       .  A
Ni989       O992   1.911       .  S
Ni989       O994   1.889       .  S
C990       O1000   1.280       .  A
C990       C1773   1.496       .  S
O991      Ni1007   1.943       .  S
O991        C997   1.283       .  A
O992        C997   1.275       .  A
C993       C1804   1.508       .  S
O994        C996   1.264       .  A
O995      Ni1006   1.931       .  S
C996       O1002   1.271       .  A
C996       C1787   1.470       .  S
C997       C1815   1.493       .  S
H998        O999   0.966       .  S
O999      Ni1007   1.947       .  S
O999      Ni1001   1.927       .  S
O999      Ni1006   1.918       .  S
O1000     Ni1001   1.949       .  S
Ni1001     O1005   1.929       .  S
Ni1001     O1003   1.915       .  S
O1002     Ni1007   1.929       .  S
C1004      O1005   1.271       .  A
C1004      C1748   1.497       .  S
O1009     Ni1017   1.940       .  S
O1009      C1019   1.287       .  A
O1010      C1020   1.286       .  A
O1011     Ni1017   1.916       .  S
O1011      C1021   1.278       .  A
O1012      C1022   1.280       .  A
O1013      C1022   1.286       .  A
O1014     Ni1018   1.939       .  S
O1014      C1021   1.286       .  A
O1015      C1020   1.278       .  A
O1016     Ni1018   1.909       .  S
O1016      C1019   1.278       .  A
Ni1017    Ni1018   2.384       .  S
C1019      C1717   1.492       .  S
C1020      C1703   1.506       .  S
C1021      C1689   1.488       .  S
C1022      C1734   1.495       .  S
O1023     Ni1031   1.928       .  S
O1023      C1033   1.282       .  A
O1024     Ni1031   1.926       .  S
O1024      C1034   1.283       .  A
O1025     Ni1031   1.922       .  S
O1025      C1035   1.282       .  A
O1026     Ni1031   1.920       .  S
O1026      C1036   1.282       .  A
O1027     Ni1032   1.931       .  S
O1027      C1036   1.282       .  A
O1028     Ni1032   1.922       .  S
O1028      C1035   1.283       .  A
O1029     Ni1032   1.936       .  S
O1029      C1034   1.285       .  A
O1030     Ni1032   1.927       .  S
O1030      C1033   1.283       .  A
Ni1031    Ni1032   2.381       .  S
C1033      C1661   1.494       .  S
C1034      C1633   1.508       .  S
C1035      C1678   1.514       .  S
C1036      C1650   1.486       .  S
O1037     Ni1045   1.907       .  S
O1037      C1047   1.279       .  A
O1038     Ni2957   1.909       .  S
O1038      C1048   1.280       .  A
O1039     Ni2957   1.906       .  S
O1039      C1049   1.279       .  A
O1040     Ni1045   1.903       .  S
O1040      C1050   1.279       .  A
O1041     Ni1046   1.913       .  S
O1041      C1050   1.281       .  A
O1042     Ni2958   1.914       .  S
O1042      C1049   1.280       .  A
O1043     Ni2958   1.912       .  S
O1043      C1048   1.278       .  A
O1044     Ni1046   1.911       .  S
O1044      C1047   1.280       .  A
Ni1045     O2950   1.909   1_455  S
Ni1045     O2951   1.906   1_455  S
Ni1045    Ni1046   2.390       .  S
Ni1046     O2954   1.914   1_455  S
Ni1046     O2955   1.912   1_455  S
C1047      C1591   1.472       .  S
C1048      C1622   1.469       .  S
C1049      C1577   1.472       .  S
C1050      C1605   1.495       .  S
C1051      C1566   1.506       .  S
C1051      C2964   1.420   1_455  A
C1051      C1056   1.406       .  A
C1052      C1745   1.495       .  S
C1052      C2963   1.420       .  A
C1052      C1053   1.406       .  A
C1053      C1054   1.405       .  A
C1053      H1058   1.084       .  S
C1054      C1720   1.513       .  S
C1054      C2967   1.428       .  A
C1055      C1675   1.507       .  S
C1055      C2966   1.428   1_455  A
C1055      C1056   1.411       .  A
C1056      H1057   1.084       .  S
C1059      C1776   1.492       .  S
C1059      C1064   1.415       .  A
C1060      C1549   1.490   1_545  S
C1060      C1061   1.391   1_545  A
C1061      C1062   1.396   1_565  A
C1061      H1066   1.085       .  S
C1062      C1608   1.483   1_545  S
C1063      C1664   1.516       .  S
C1063      C1064   1.414       .  A
C1064      H1065   1.083       .  S
C1067      C1538   1.492       .  S
C1067      C1068   1.416       .  A
C1067      C1072   1.409       .  A
C1068      C1899   1.493       .  S
C1068      C1069   1.398       .  A
C1069      C1070   1.403       .  A
C1069      H1074   1.084       .  S
C1070      C1580   1.497       .  S
C1070      C1071   1.423       .  A
C1071      C1706   1.505       .  S
C1071      C1072   1.404       .  A
C1072      H1073   1.084       .  S
C1075      C1818   1.504       .  S
C1075      C1076   1.422       .  A
C1075      C1080   1.403       .  A
C1076      C1521   1.489       .  S
C1076      C1077   1.414       .  A
C1077      C1078   1.404       .  A
C1077      H1082   1.084       .  S
C1078      C1731   1.504       .  S
C1078      C1079   1.411       .  A
C1079      C1619   1.479       .  S
C1079      C1080   1.398       .  A
C1080      H1081   1.085       .  S
C1083      C1832   1.486       .  S
C1083      C1088   1.410       .  A
C1084      C1507   1.505       .  S
C1084      C1085   1.407       .  A
C1085      C1086   1.405       .  A
C1085      H1090   1.084       .  S
C1086      C1594   1.480       .  S
C1087      C1647   1.497       .  S
C1087      C1088   1.392       .  A
C1088      H1089   1.085       .  S
C1091      C1860   1.513       .  S
C1091      C3004   1.432       .  A
C1091      C1096   1.413       .  A
C1092      C1493   1.513       .  S
C1092      C3003   1.432   1_455  A
C1092      C1093   1.417       .  A
C1093      C1094   1.405       .  A
C1093      H1098   1.084       .  S
C1094      C1636   1.509       .  S
C1094      C3007   1.414   1_455  A
C1095      C1692   1.497       .  S
C1095      C3006   1.414       .  A
C1095      C1096   1.406       .  A
C1096      H1097   1.084       .  S
O1099     Ni1105   1.916       .  S
O1099      C1120   1.271       .  A
O1100     Ni1123   1.927       .  S
O1100      C1109   1.274       .  A
O1101     Ni1105   1.908       .  S
O1101     Ni1123   1.921       .  S
O1101     Ni1117   1.933       .  S
O1101      H1124   0.974       .  S
C1102      O1119   1.281       .  A
C1102      O1111   1.277       .  A
C1102      C1454   1.482       .  S
O1103     Ni1122   1.913       .  S
O1103      C1109   1.267       .  A
O1104     Ni1122   1.910       .  S
O1104      C1106   1.268       .  A
Ni1105     O1108   1.923       .  S
Ni1105     O1110   1.887       .  S
C1106      O1116   1.277       .  A
C1106      C1563   1.505       .  S
O1107     Ni1123   1.926       .  S
O1107      C1113   1.271       .  A
O1108      C1113   1.265       .  A
C1109      C1468   1.481       .  S
O1110      C1112   1.271       .  A
O1111     Ni1122   1.915       .  S
C1112      O1118   1.287       .  A
C1112      C1482   1.497       .  S
C1113      C1552   1.485       .  S
H1114      O1115   0.964       .  S
O1115     Ni1123   1.908       .  S
O1115     Ni1117   1.897       .  S
O1115     Ni1122   1.893       .  S
O1116     Ni1117   1.950       .  S
Ni1117     O1121   1.919       .  S
Ni1117     O1119   1.937       .  S
O1118     Ni1123   1.980       .  S
C1120      O1121   1.272       .  A
C1120      C1524   1.485       .  S
O1125     Ni1131   1.925       .  S
O1125      C1146   1.269       .  A
O1126     Ni1149   1.922       .  S
O1126      C1135   1.274       .  A
O1127     Ni1131   1.911       .  S
O1127     Ni1149   1.920   1_556  S
O1127     Ni1143   1.916       .  S
O1127      H1150   0.966       .  S
C1128      O1145   1.277       .  A
C1128      O1137   1.279       .  A
C1128      C1423   1.497       .  S
O1129     Ni1148   1.945       .  S
O1129      C1135   1.276       .  A
O1130     Ni1148   1.906   1_556  S
O1130      C1132   1.269       .  A
Ni1131     O1134   1.917       .  S
Ni1131     O1136   1.912       .  S
C1132      O1142   1.276       .  A
C1132      C1496   1.502       .  S
O1133     Ni1149   1.920   1_556  S
O1133      C1139   1.273       .  A
O1134      C1139   1.274       .  A
C1135      C1409   1.507       .  S
O1136      C1138   1.270   1_556  A
O1137     Ni1148   1.934       .  S
C1138      O1144   1.280       .  A
C1138      C1440   1.500       .  S
C1139      C1535   1.477       .  S
H1140      O1141   0.965       .  S
O1141     Ni1149   1.901       .  S
O1141     Ni1143   1.913   1_554  S
O1141     Ni1148   1.907       .  S
O1142     Ni1143   1.951       .  S
Ni1143     O1147   1.927       .  S
Ni1143     O1145   1.912   1_556  S
O1144     Ni1149   1.952       .  S
C1146      O1147   1.272       .  A
C1146      C1510   1.490       .  S
O1151     Ni1159   1.926       .  S
O1151      C1161   1.280       .  A
O1152     Ni3071   1.925   1_455  S
O1152      C1162   1.280       .  A
O1153     Ni3071   1.941   1_455  S
O1153      C1163   1.287       .  A
O1154     Ni1159   1.946       .  S
O1154      C1164   1.288       .  A
O1155     Ni1160   1.910       .  S
O1155      C1164   1.279       .  A
O1156     Ni3072   1.906   1_455  S
O1156      C1163   1.279       .  A
O1157     Ni3072   1.942   1_455  S
O1157      C1162   1.286       .  A
O1158     Ni1160   1.942       .  S
O1158      C1161   1.286       .  A
Ni1159     O3064   1.925       .  S
Ni1159     O3065   1.941       .  S
Ni1159    Ni1160   2.382       .  S
Ni1160     O3068   1.906       .  S
Ni1160     O3069   1.942       .  S
C1161      C1367   1.498       .  S
C1162      C1384   1.496       .  S
C1163      C1398   1.505       .  S
C1164      C1353   1.510       .  S
O1165     Ni1173   1.914       .  S
O1165      C1175   1.280       .  A
O1166     Ni1173   1.914       .  S
O1166      C1176   1.280       .  A
O1167     Ni1173   1.896       .  S
O1167      C1177   1.277       .  A
O1168     Ni1173   1.901       .  S
O1168      C1178   1.278       .  A
O1169     Ni1174   1.913       .  S
O1169      C1178   1.280       .  A
O1170     Ni1174   1.906       .  S
O1170      C1177   1.280       .  A
O1171     Ni1174   1.919       .  S
O1171      C1176   1.281       .  A
O1172     Ni1174   1.926       .  S
O1172      C1175   1.282       .  A
Ni1173    Ni1174   2.394       .  S
C1175      C1328   1.479       .  S
C1176      C1311   1.477       .  S
C1177      C1339   1.471       .  S
C1178      C1297   1.469       .  S
C1179      C1479   1.500       .  S
C1179      C1184   1.412       .  A
C1180      C1759   1.544       .  S
C1180      C1181   1.428       .  A
C1181      C1182   1.406       .  A
C1181      H1186   1.078       .  S
C1182      C1356   1.506       .  S
C1183      C1325   1.502       .  S
C1183      C1184   1.398       .  A
C1184      H1185   1.085       .  S
O1187     Ni1195   1.920       .  S
O1187      C1197   1.283       .  A
O1188      C1198   1.280       .  A
O1189      C1199   1.281       .  A
O1190     Ni1195   1.910       .  S
O1190      C1200   1.279       .  A
O1191     Ni1196   1.911   1_565  S
O1191      C1200   1.281       .  A
O1192      C1199   1.281       .  A
O1193      C1198   1.280       .  A
O1194     Ni1196   1.906   1_565  S
O1194      C1197   1.278       .  A
Ni1195    Ni1196   2.386   1_565  S
C1197      C1241   1.485       .  S
C1198      C1283   1.477       .  S
C1199      C1269   1.482       .  S
C1200      C1255   1.502       .  S
C1201      C1437   1.502       .  S
C1201      C1206   1.396       .  A
C1202      C1874   1.491       .  S
C1202      C1203   1.416       .  A
C1203      C1204   1.405       .  A
C1203      H1208   1.084       .  S
C1204      C1370   1.514       .  S
C1205      C1342   1.475       .  S
C1205      C1206   1.399       .  A
C1206      H1207   1.085       .  S
C1209      C1801   1.504       .  S
C1209      C1210   1.425       .  A
C1209      C1214   1.404       .  A
C1210      C1451   1.501       .  S
C1210      C1211   1.419       .  A
C1211      C1212   1.407       .  A
C1211      H1216   1.084       .  S
C1212      C1381   1.508       .  S
C1212      C1213   1.412       .  A
C1213      C1272   1.485       .  S
C1213      C1214   1.397       .  A
C1214      H1215   1.085       .  S
C1217      C1412   1.502       .  S
C1217      C1218   1.421       .  A
C1217      C1222   1.407       .  A
C1218      C1846   1.499       .  S
C1218      C1219   1.408       .  A
C1219      C1220   1.406       .  A
C1219      H1224   1.084       .  S
C1220      C1286   1.506       .  S
C1220      C1221   1.424       .  A
C1221      C1395   1.507       .  S
C1221      C1222   1.406       .  A
C1222      H1223   1.084       .  S
C1225      C1790   1.492       .  S
C1225      C3138   1.425       .  A
C1225      C1230   1.403       .  A
C1226      C1465   1.495       .  S
C1226      C3137   1.425   1_455  A
C1226      C1227   1.409       .  A
C1227      C1228   1.398       .  A
C1227      H1232   1.085       .  S
C1228      C1244   1.490       .  S
C1228      C3141   1.410   1_455  A
C1229      C1300   1.481       .  S
C1229      C3140   1.410       .  A
C1229      C1230   1.390       .  A
C1230      H1231   1.085       .  S
C1233      C1888   1.481       .  S
C1233      C3146   1.411       .  A
C1233      C1238   1.395       .  A
C1234      C1426   1.488       .  S
C1234      C3145   1.411   1_455  A
C1234      C1235   1.398       .  A
C1235      C1236   1.404       .  A
C1235      H1240   1.084       .  S
C1236      C1258   1.488       .  S
C1236      C3149   1.422   1_455  A
C1237      C1314   1.497       .  S
C1237      C3148   1.422       .  A
C1237      C1238   1.397       .  A
C1238      H1239   1.085       .  S
C1241      C1242   1.414       .  A
C1241      C1246   1.411       .  A
C1242      C1243   1.413       .  A
C1242      C1247   1.451       .  S
C1243      C1244   1.413       .  A
C1243      C1250   1.447       .  S
C1244      C1245   1.407       .  A
C1245      C1246   1.401       .  A
C1245      C1248   1.448       .  S
C1246      C1249   1.449       .  S
C1247      N1254   1.157       .  T
C1248      N1253   1.157       .  T
C1250      N1252   1.156       .  T
C1255      C1256   1.424       .  A
C1255      C1260   1.424       .  A
C1256      C1257   1.406       .  A
C1256      C1261   1.448       .  S
C1257      C1258   1.404       .  A
C1257      C3176   1.452       .  S
C1258      C1259   1.411       .  A
C1259      C1260   1.411       .  A
C1259      C1262   1.453       .  S
C1260      C1263   1.452       .  S
C1261      N3180   1.156       .  T
C1262      N1267   1.157       .  T
C1263      N1265   1.158       .  T
C1264      C3169   1.452       .  S
C1264      N1266   1.157       .  T
N1268      C3173   1.156       .  T
C1269      C1270   1.409       .  A
C1269      C1274   1.413       .  A
C1270      C1271   1.406       .  A
C1270      C1275   1.444       .  S
C1271      C1272   1.409       .  A
C1271      C1278   1.452       .  S
C1272      C1273   1.411       .  A
C1273      C1274   1.411       .  A
C1273      C1276   1.449       .  S
C1274      C1277   1.450       .  S
C1276      N1281   1.157       .  T
C1277      N1279   1.157       .  T
C1278      N1280   1.157       .  T
C1283      C1284   1.406       .  A
C1283      C1288   1.408       .  A
C1284      C1285   1.410       .  A
C1284      C1289   1.448       .  S
C1285      C1286   1.416       .  A
C1285      C1292   1.448       .  S
C1286      C1287   1.421       .  A
C1287      C1288   1.411       .  A
C1287      C1290   1.448       .  S
C1288      C1291   1.453       .  S
C1289      N1296   1.156       .  T
C1290      N1295   1.157       .  T
C1291      N1293   1.157       .  T
C1292      N1294   1.157       .  T
C1297      C1298   1.412       .  A
C1297      C1302   1.409       .  A
C1298      C1299   1.408       .  A
C1298      C1303   1.450       .  S
C1299      C1300   1.410       .  A
C1299      C1306   1.450       .  S
C1300      C1301   1.409       .  A
C1301      C1302   1.401       .  A
C1301      C3216   1.447       .  S
C1302      C1305   1.453       .  S
C1303      N1310   1.157       .  T
C1304      C3213   1.447       .  S
C1304      N1309   1.156       .  T
C1305      N3219   1.157       .  T
C1306      N1308   1.157       .  T
N1307      C3217   1.157       .  T
C1311      C1312   1.411       .  A
C1311      C1316   1.410       .  A
C1312      C1313   1.408       .  A
C1312      C1317   1.451       .  S
C1313      C1314   1.416       .  A
C1313      C1320   1.452       .  S
C1314      C1315   1.414       .  A
C1315      C1316   1.409       .  A
C1315      C3230   1.449       .  S
C1316      C1319   1.451       .  S
C1317      N1324   1.157       .  T
C1318      C3227   1.449       .  S
C1318      N1323   1.157   1_655  T
C1319      N3233   1.157       .  T
C1320      N1322   1.157       .  T
N1321      C3231   1.157       .  T
C1325      C1326   1.418       .  A
C1325      C1330   1.416       .  A
C1326      C1327   1.408       .  A
C1326      C1331   1.445       .  S
C1327      C1328   1.403       .  A
C1327      C1334   1.451       .  S
C1328      C1329   1.409       .  A
C1329      C1330   1.414       .  A
C1329      C1332   1.448       .  S
C1330      C1333   1.448       .  S
C1331      N1338   1.155       .  T
C1332      N1337   1.157       .  T
C1333      N1335   1.157       .  T
C1334      N1336   1.157       .  T
C1339      C1340   1.415       .  A
C1339      C1344   1.412       .  A
C1340      C1341   1.402       .  A
C1340      C1345   1.453       .  S
C1341      C1342   1.408       .  A
C1341      C1348   1.451       .  S
C1342      C1343   1.411       .  A
C1343      C1344   1.403       .  A
C1343      C1346   1.452       .  S
C1344      C1347   1.452       .  S
C1345      N1352   1.157       .  T
C1346      N1351   1.157       .  T
C1347      N1349   1.157       .  T
C1348      N1350   1.157       .  T
C1353      C1354   1.419       .  A
C1353      C1358   1.424       .  A
C1354      C1355   1.419       .  A
C1354      C1359   1.450       .  S
C1355      C1356   1.415       .  A
C1355      C1362   1.450       .  S
C1356      C1357   1.410       .  A
C1357      C1358   1.413       .  A
C1359      N1366   1.157       .  T
C1360      N1365   1.157       .  T
C1361      N1363   1.157       .  T
C1362      N1364   1.157       .  T
C1367      C1368   1.414       .  A
C1367      C1372   1.411       .  A
C1368      C1369   1.419       .  A
C1368      C1373   1.449       .  S
C1369      C1370   1.416       .  A
C1369      C1376   1.450       .  S
C1370      C1371   1.416       .  A
C1371      C1372   1.418       .  A
C1373      N1380   1.157       .  T
C1374      N1379   1.157   1_545  T
C1375      N1377   1.157       .  T
C1376      N1378   1.157       .  T
C1381      C1382   1.415       .  A
C1381      C1386   1.414       .  A
C1382      C1383   1.418       .  A
C1382      C1387   1.449       .  S
C1383      C1384   1.413       .  A
C1383      C1390   1.448       .  S
C1384      C1385   1.413       .  A
C1385      C1386   1.416       .  A
C1385      C1388   1.448       .  S
C1386      C1389   1.449       .  S
C1387      N1394   1.157       .  T
C1388      N1393   1.156   1_455  T
C1389      N1391   1.157       .  T
C1390      N1392   1.157       .  T
C1395      C1396   1.418       .  A
C1395      C1400   1.412       .  A
C1396      C1397   1.417       .  A
C1396      C1401   1.450       .  S
C1397      C1398   1.416       .  A
C1397      C1404   1.450       .  S
C1398      C1399   1.421       .  A
C1399      C1400   1.412       .  A
C1399      C1402   1.451       .  S
C1400      C1403   1.452       .  S
C1401      N1408   1.157       .  T
C1402      N3319   1.157       .  T
C1403      N1405   1.157       .  T
C1404      N1406   1.157       .  T
N1407      C3314   1.157       .  T
C1409      C1410   1.416       .  A
C1409      C1414   1.420       .  A
C1410      C1411   1.418       .  A
C1410      C1415   1.451       .  S
C1411      C1412   1.418       .  A
C1411      C1418   1.451       .  S
C1412      C1413   1.410       .  A
C1413      C1414   1.417       .  A
C1413      C1416   1.449       .  S
C1414      C1417   1.449       .  S
C1415      N1422   1.157       .  T
C1416      N1421   1.157       .  T
C1417      N1419   1.156   1_554  T
C1418      N1420   1.157       .  T
C1423      C1424   1.417       .  A
C1423      C1428   1.423       .  A
C1424      C1425   1.412       .  A
C1424      C1429   1.449       .  S
C1425      C1426   1.409       .  A
C1425      C1432   1.449       .  S
C1426      C1427   1.408       .  A
C1427      C1428   1.408       .  A
C1427      C1430   1.453       .  S
C1428      C1431   1.453       .  S
C1429      N1436   1.157   1_554  T
C1430      N1435   1.157       .  T
C1431      N1433   1.158       .  T
C1432      N1434   1.157       .  T
C1437      C1438   1.416       .  A
C1437      C1442   1.413       .  A
C1438      C1439   1.420       .  A
C1438      C1443   1.449       .  S
C1439      C1440   1.416       .  A
C1439      C1446   1.450       .  S
C1440      C1441   1.415       .  A
C1441      C1442   1.413       .  A
C1441      C1444   1.450       .  S
C1442      C1445   1.449       .  S
C1443      N1450   1.157       .  T
C1444      N1449   1.157   1_554  T
C1445      N1447   1.157       .  T
C1446      N1448   1.157       .  T
C1451      C1452   1.418       .  A
C1451      C1456   1.419       .  A
C1452      C1453   1.415       .  A
C1452      C1457   1.446       .  S
C1453      C1454   1.407       .  A
C1453      C1460   1.451       .  S
C1454      C1455   1.410       .  A
C1455      C1456   1.410       .  A
C1455      C1458   1.452       .  S
C1456      C1459   1.453       .  S
C1457      N1464   1.157       .  T
C1458      N1463   1.157       .  T
C1459      N1461   1.157       .  T
C1460      N1462   1.157       .  T
C1465      C1466   1.415       .  A
C1465      C1470   1.417       .  A
C1466      C1467   1.416       .  A
C1466      C3383   1.447       .  S
C1467      C1468   1.409       .  A
C1467      C1474   1.450       .  S
C1468      C1469   1.410       .  A
C1469      C1470   1.409       .  A
C1469      C1472   1.453       .  S
C1470      C1473   1.450       .  S
C1471      C3378   1.447       .  S
C1471      N1478   1.157       .  T
C1472      N1477   1.157       .  T
C1473      N1475   1.157       .  T
C1474      N1476   1.157       .  T
C1479      C1480   1.418       .  A
C1479      C1484   1.413       .  A
C1480      C1481   1.421       .  A
C1480      C1485   1.449       .  S
C1481      C1482   1.418       .  A
C1481      C1488   1.449       .  S
C1482      C1483   1.412       .  A
C1483      C1484   1.405       .  A
C1483      C1486   1.453       .  S
C1484      C1487   1.447       .  S
C1486      N1491   1.157       .  T
C1487      N1489   1.156       .  T
C1488      N1490   1.157       .  T
C1493      C1494   1.418       .  A
C1493      C1498   1.421       .  A
C1494      C1495   1.422       .  A
C1494      C1499   1.448       .  S
C1495      C1496   1.416       .  A
C1495      C1502   1.449       .  S
C1496      C1497   1.411       .  A
C1497      C1498   1.411       .  A
C1497      C1500   1.450       .  S
C1498      C1501   1.453       .  S
C1499      N1506   1.157       .  T
C1500      N1505   1.157       .  T
C1501      N1503   1.157       .  T
C1502      N1504   1.157       .  T
C1507      C1508   1.417       .  A
C1507      C1512   1.418       .  A
C1508      C1509   1.418       .  A
C1508      C1513   1.447       .  S
C1509      C1510   1.410       .  A
C1509      C1516   1.449       .  S
C1510      C1511   1.411       .  A
C1511      C1512   1.412       .  A
C1511      C1514   1.452       .  S
C1512      C1515   1.451       .  S
C1513      N1520   1.157       .  T
C1514      N1519   1.157       .  T
C1515      N1517   1.157       .  T
C1516      N1518   1.157   1_556  T
C1521      C1522   1.410       .  A
C1521      C1526   1.415       .  A
C1522      C1523   1.409       .  A
C1522      C1527   1.450       .  S
C1523      C1524   1.414       .  A
C1523      C1530   1.452       .  S
C1524      C1525   1.411       .  A
C1525      C1526   1.414       .  A
C1525      C1528   1.451       .  S
C1526      C1529   1.450       .  S
C1527      N1534   1.157       .  T
C1528      N1533   1.157       .  T
C1529      N1531   1.157       .  T
C1530      N1532   1.157       .  T
C1535      C1536   1.408       .  A
C1535      C1540   1.406       .  A
C1536      C1537   1.409       .  A
C1536      C1541   1.452       .  S
C1537      C1538   1.417       .  A
C1537      C1544   1.451       .  S
C1538      C1539   1.415       .  A
C1539      C1540   1.412       .  A
C1539      C1542   1.445       .  S
C1540      C1543   1.451       .  S
C1541      N1548   1.157       .  T
C1542      N1547   1.157       .  T
C1543      N1545   1.157   1_556  T
C1544      N1546   1.157       .  T
C1549      C1550   1.411       .  A
C1549      C1554   1.416       .  A
C1550      C1551   1.405       .  A
C1550      C1555   1.451       .  S
C1551      C1552   1.415       .  A
C1551      C1558   1.454       .  S
C1552      C1553   1.411       .  A
C1553      C1554   1.417       .  A
C1553      C1556   1.450       .  S
C1554      C1557   1.449       .  S
C1556      N1561   1.157       .  T
C1557      N1559   1.157   1_565  T
C1558      N1560   1.157       .  T
C1563      C1564   1.419       .  A
C1563      C1568   1.415       .  A
C1564      C1565   1.416       .  A
C1564      C1569   1.452       .  S
C1565      C1566   1.411       .  A
C1565      C1572   1.448       .  S
C1566      C1567   1.418       .  A
C1567      C1568   1.421       .  A
C1567      C1570   1.449       .  S
C1568      C1571   1.450       .  S
C1569      N1576   1.157       .  T
C1570      N1575   1.157       .  T
C1571      N1573   1.157       .  T
C1572      N1574   1.157       .  T
C1577      C1578   1.409       .  A
C1577      C1582   1.408       .  A
C1578      C1579   1.408       .  A
C1578      C1583   1.452       .  S
C1579      C1580   1.419       .  A
C1579      C1586   1.451       .  S
C1580      C1581   1.414       .  A
C1581      C1582   1.406       .  A
C1581      C1584   1.449       .  S
C1582      C1585   1.450       .  S
C1583      N1590   1.157       .  T
C1584      N1589   1.157       .  T
C1585      N1587   1.157       .  T
C1586      N1588   1.157       .  T
C1591      C1592   1.410       .  A
C1591      C1596   1.412       .  A
C1592      C1593   1.407       .  A
C1592      C1597   1.451       .  S
C1593      C1594   1.411       .  A
C1593      C1600   1.449       .  S
C1594      C1595   1.410       .  A
C1595      C1596   1.406       .  A
C1597      N1604   1.157       .  T
C1598      N1603   1.157       .  T
C1599      N1601   1.157       .  T
C1600      N1602   1.157       .  T
C1605      C1606   1.421       .  A
C1605      C1610   1.424       .  A
C1606      C1607   1.406       .  A
C1606      C1611   1.452       .  S
C1607      C1608   1.411       .  A
C1607      C1614   1.453       .  S
C1608      C1609   1.405       .  A
C1609      C1610   1.406       .  A
C1611      N1618   1.158       .  T
C1612      N1617   1.157       .  T
C1613      N1615   1.156       .  T
C1614      N1616   1.157       .  T
C1619      C1620   1.409       .  A
C1619      C1624   1.411       .  A
C1620      C1621   1.402       .  A
C1620      C1625   1.449       .  S
C1621      C1622   1.406       .  A
C1621      C1628   1.448       .  S
C1622      C1623   1.410       .  A
C1623      C1624   1.409       .  A
C1623      C1626   1.450       .  S
C1624      C1627   1.449       .  S
C1625      N1632   1.157       .  T
C1626      N1631   1.157       .  T
C1627      N1629   1.157       .  T
C1628      N3542   1.156       .  T
N1630      C3540   1.156   1_455  T
C1633      C1634   1.418       .  A
C1633      C1638   1.420       .  A
C1634      C1635   1.413       .  A
C1634      C1639   1.450       .  S
C1635      C1636   1.413       .  A
C1635      C3554   1.449       .  S
C1636      C1637   1.413       .  A
C1637      C1638   1.420       .  A
C1637      C1640   1.450       .  S
C1638      C1641   1.449       .  S
C1639      N3558   1.157       .  T
C1640      N1645   1.157       .  T
C1641      N1643   1.157       .  T
C1642      C3547   1.449       .  S
C1642      N1644   1.157       .  T
N1646      C3551   1.157       .  T
C1647      C1648   1.412       .  A
C1647      C1652   1.414       .  A
C1648      C1649   1.410       .  A
C1648      C1653   1.447       .  S
C1649      C1650   1.406       .  A
C1649      C1656   1.447       .  S
C1650      C1651   1.411       .  A
C1651      C1652   1.416       .  A
C1651      C1654   1.449       .  S
C1652      C1655   1.448       .  S
C1653      N1660   1.157       .  T
C1654      N1659   1.157       .  T
C1655      N1657   1.157       .  T
C1656      N1658   1.156       .  T
C1661      C1662   1.412       .  A
C1661      C1666   1.411       .  A
C1662      C1663   1.416       .  A
C1662      C1667   1.452       .  S
C1663      C1664   1.419       .  A
C1663      C1670   1.448       .  S
C1664      C1665   1.419       .  A
C1665      C1666   1.417       .  A
C1666      C1669   1.450       .  S
C1667      N1674   1.157       .  T
C1668      N1673   1.157       .  T
C1669      N1671   1.157       .  T
C1670      N1672   1.156       .  T
C1675      C1676   1.409       .  A
C1675      C1680   1.415       .  A
C1676      C1677   1.414       .  A
C1676      C1681   1.452       .  S
C1677      C1678   1.425       .  A
C1677      C1684   1.448       .  S
C1678      C1679   1.424       .  A
C1679      C1680   1.415       .  A
C1679      C1682   1.452       .  S
C1680      C3595   1.451       .  S
C1681      N1688   1.157   1_455  T
C1682      N3599   1.157       .  T
C1683      C3592   1.451       .  S
C1683      N1685   1.157       .  T
C1684      N1686   1.156       .  T
N1687      C3594   1.157       .  T
C1689      C1690   1.413       .  A
C1689      C1694   1.412       .  A
C1690      C1691   1.414       .  A
C1690      C1695   1.448       .  S
C1691      C1692   1.412       .  A
C1691      C1698   1.450       .  S
C1692      C1693   1.411       .  A
C1693      C1694   1.412       .  A
C1693      C3608   1.449       .  S
C1694      C1697   1.449       .  S
C1695      N1702   1.156       .  T
C1696      C3605   1.449       .  S
C1696      N1701   1.157       .  T
C1697      N3611   1.157       .  T
C1698      N1700   1.157       .  T
N1699      C3609   1.157       .  T
C1703      C1704   1.424       .  A
C1703      C1708   1.418       .  A
C1704      C1705   1.411       .  A
C1704      C1709   1.452       .  S
C1705      C1706   1.410       .  A
C1705      C1712   1.452       .  S
C1706      C1707   1.417       .  A
C1707      C1708   1.417       .  A
C1707      C1710   1.450       .  S
C1708      C1711   1.451       .  S
C1709      N1716   1.157       .  T
C1710      N1715   1.157       .  T
C1711      N1713   1.158       .  T
C1712      N1714   1.157       .  T
C1717      C1718   1.411       .  A
C1717      C1722   1.415       .  A
C1718      C1719   1.417       .  A
C1718      C1723   1.451       .  S
C1719      C1720   1.422       .  A
C1719      C1726   1.449       .  S
C1720      C1721   1.414       .  A
C1721      C1722   1.410       .  A
C1721      C3636   1.449       .  S
C1722      C3637   1.451       .  S
C1723      N1730   1.158       .  T
C1724      C3633   1.449   1_455  S
C1724      N1729   1.157       .  T
C1725      C3634   1.451       .  S
C1725      N1727   1.158       .  T
C1726      N1728   1.157       .  T
C1731      C1732   1.411       .  A
C1731      C1736   1.413       .  A
C1732      C1733   1.416       .  A
C1732      C1737   1.449       .  S
C1733      C1734   1.415       .  A
C1733      C1740   1.448       .  S
C1734      C1735   1.413       .  A
C1735      C1736   1.416       .  A
C1735      C1738   1.450       .  S
C1736      C1739   1.448       .  S
C1737      N1744   1.157       .  T
C1739      N1741   1.157       .  T
C1740      N1742   1.156       .  T
C1745      C1746   1.416       .  A
C1745      C1750   1.411       .  A
C1746      C1747   1.414       .  A
C1746      C1751   1.450       .  S
C1747      C1748   1.413       .  A
C1747      C1754   1.450       .  S
C1748      C1749   1.420       .  A
C1749      C1750   1.414       .  A
C1749      C1752   1.453       .  S
C1750      C3665   1.450       .  S
C1751      N1758   1.157       .  T
C1752      N1757   1.158       .  T
C1753      C3662   1.450       .  S
C1753      N1755   1.157       .  T
C1754      N1756   1.157       .  T
C1759      C1760   1.422       .  A
C1759      C1764   1.412       .  A
C1760      C1761   1.416       .  A
C1760      C1765   1.452       .  S
C1761      C1762   1.416       .  A
C1761      C1768   1.449       .  S
C1762      C1763   1.416       .  A
C1763      C1764   1.412       .  A
C1763      C1766   1.451       .  S
C1765      N1772   1.158       .  T
C1766      N1771   1.157       .  T
C1767      N1769   1.158       .  T
C1768      N1770   1.157       .  T
C1773      C1774   1.417       .  A
C1773      C1778   1.416       .  A
C1774      C1775   1.407       .  A
C1774      C1779   1.451       .  S
C1775      C1776   1.410       .  A
C1775      C1782   1.451       .  S
C1776      C1777   1.413       .  A
C1777      C1778   1.416       .  A
C1777      C1780   1.447       .  S
C1778      C1781   1.451       .  S
C1779      N1786   1.157       .  T
C1781      N1783   1.158       .  T
C1782      N1784   1.157       .  T
C1787      C1788   1.402       .  A
C1787      C1792   1.408       .  A
C1788      C1789   1.406       .  A
C1788      C1793   1.451       .  S
C1789      C1790   1.421       .  A
C1789      C1796   1.448       .  S
C1790      C1791   1.415       .  A
C1791      C1792   1.410       .  A
C1791      C1794   1.446       .  S
C1792      C1795   1.451       .  S
C1793      N1800   1.157       .  T
C1794      N1799   1.157       .  T
C1795      N1797   1.157       .  T
C1796      N1798   1.156       .  T
C1801      C1802   1.414       .  A
C1801      C1806   1.417       .  A
C1802      C1803   1.422       .  A
C1802      C1807   1.448       .  S
C1803      C1804   1.419       .  A
C1803      C1810   1.450       .  S
C1804      C1805   1.420       .  A
C1805      C1806   1.410       .  A
C1805      C1808   1.453       .  S
C1806      C1809   1.454       .  S
C1807      N1814   1.157       .  T
C1808      N1813   1.158       .  T
C1809      N1811   1.157       .  T
C1810      N1812   1.157       .  T
C1815      C1816   1.412       .  A
C1815      C1820   1.414       .  A
C1816      C1817   1.421       .  A
C1816      C1821   1.450       .  S
C1817      C1818   1.418       .  A
C1817      C1824   1.447       .  S
C1818      C1819   1.416       .  A
C1819      C1820   1.409       .  A
C1819      C1822   1.449       .  S
C1820      C1823   1.454       .  S
C1821      N1828   1.157       .  T
C1822      N1827   1.156       .  T
C1823      N1825   1.157       .  T
C1824      N1826   1.157       .  T
C1829      C1830   1.409       .  A
C1829      C1834   1.408       .  A
C1830      C1831   1.411       .  A
C1830      C1835   1.452       .  S
C1831      C1832   1.415       .  A
C1831      C1838   1.447       .  S
C1832      C1833   1.416       .  A
C1833      C1834   1.401       .  A
C1833      C1836   1.451       .  S
C1834      C1837   1.454       .  S
C1835      N1842   1.157       .  T
C1836      N1841   1.157       .  T
C1837      N1839   1.158       .  T
C1838      N1840   1.157       .  T
C1843      C1844   1.413       .  A
C1843      C1848   1.408       .  A
C1844      C1845   1.416       .  A
C1844      C1849   1.451       .  S
C1845      C1846   1.413       .  A
C1845      C1852   1.447       .  S
C1846      C1847   1.419       .  A
C1847      C1848   1.412       .  A
C1847      C1850   1.451       .  S
C1848      C1851   1.451       .  S
C1849      N1856   1.157       .  T
C1850      N1855   1.158       .  T
C1851      N1853   1.157       .  T
C1852      N1854   1.157       .  T
C1857      C1858   1.427       .  A
C1857      C1862   1.421       .  A
C1858      C1859   1.416       .  A
C1858      C1863   1.452       .  S
C1859      C1860   1.411       .  A
C1859      C1866   1.450       .  S
C1860      C1861   1.419       .  A
C1861      C1862   1.421       .  A
C1861      C1864   1.452       .  S
C1862      C1865   1.451       .  S
C1863      N1870   1.158   1_556  T
C1864      N3781   1.157       .  T
C1865      N1867   1.158       .  T
C1866      N1868   1.157       .  T
N1869      C3776   1.157       .  T
C1871      C1872   1.416       .  A
C1871      C1876   1.417       .  A
C1872      C1873   1.406       .  A
C1872      C1877   1.453       .  S
C1873      C1874   1.410       .  A
C1873      C1880   1.448       .  S
C1874      C1875   1.415       .  A
C1875      C1876   1.418       .  A
C1875      C1878   1.450       .  S
C1876      C1879   1.450       .  S
C1877      N1884   1.157   1_554  T
C1878      N1883   1.157       .  T
C1879      N1881   1.158       .  T
C1885      C1886   1.410       .  A
C1885      C1890   1.420       .  A
C1886      C1887   1.402       .  A
C1886      C1891   1.451       .  S
C1887      C1888   1.409       .  A
C1887      C1894   1.448       .  S
C1888      C1889   1.411       .  A
C1889      C1890   1.406       .  A
C1889      C1892   1.453       .  S
C1890      C1893   1.453       .  S
C1891      N1898   1.157   1_554  T
C1892      N1897   1.157       .  T
C1893      N1895   1.158       .  T
C1894      N3808   1.157       .  T
N1896      C3806   1.157       .  T
C1899      C1900   1.409       .  A
C1899      C1904   1.416       .  A
C1900      C1901   1.412       .  A
C1900      C1905   1.450       .  S
C1901      C1902   1.418       .  A
C1901      C1908   1.452       .  S
C1902      C1903   1.410       .  A
C1903      C1904   1.414       .  A
C1903      C1906   1.448       .  S
C1904      C1907   1.450       .  S
C1905      N1912   1.157       .  T
C1906      N1911   1.157       .  T
C1907      N1909   1.158       .  T
C1908      N1910   1.157       .  T
O1913     Ni1919   1.923       .  S
O1913      C1934   1.272       .  A
O1914     Ni1937   1.940   1_556  S
O1914      C1923   1.274       .  A
O1915     Ni1919   1.893       .  S
O1915     Ni1937   1.906       .  S
O1915     Ni1931   1.901       .  S
O1915      H1938   0.967       .  S
C1916      O1933   1.274       .  A
C1916      O1925   1.276       .  A
C1916      C2785   1.469       .  S
O1917     Ni1936   1.909       .  S
O1917      C1923   1.263       .  A
O1918     Ni1936   1.901   1_554  S
O1918      C1920   1.265       .  A
Ni1919     O1922   1.918       .  S
Ni1919     O1924   1.904       .  S
C1920      O1930   1.275       .  A
C1920      C2799   1.486       .  S
O1921     Ni1937   1.906       .  S
O1921      C1927   1.279       .  A
O1922      C1927   1.278       .  A
C1923      C2858   1.491       .  S
O1924      C1926   1.267   1_554  A
O1925     Ni1936   1.908       .  S
C1926      O1932   1.278       .  A
C1926      C2813   1.520       .  S
C1927      C2841   1.480       .  S
H1928      O1929   0.966       .  S
O1929     Ni1937   1.916   1_556  S
O1929     Ni1931   1.910   1_556  S
O1929     Ni1936   1.903       .  S
O1930     Ni1931   1.944       .  S
Ni1931     O1935   1.918       .  S
Ni1931     O1933   1.912   1_554  S
O1932     Ni1937   1.955   1_556  S
C1934      O1935   1.270       .  A
C1934      C2827   1.499       .  S
O1939     Ni1945   1.918       .  S
O1939      C1960   1.265       .  A
O1940     Ni1963   1.926       .  S
O1940      C1949   1.274       .  A
O1941     Ni1945   1.904       .  S
O1941     Ni1963   1.907       .  S
O1941     Ni1957   1.907       .  S
O1941      H1964   0.966       .  S
C1942      O1959   1.269       .  A
C1942      O1951   1.271       .  A
C1942      C2718   1.497       .  S
O1943     Ni1962   1.924       .  S
O1943      C1949   1.272       .  A
O1944     Ni1962   1.897       .  S
O1944      C1946   1.271       .  A
Ni1945     O1948   1.911       .  S
Ni1945     O1950   1.889       .  S
C1946      O1956   1.280       .  A
C1946      C2729   1.496       .  S
O1947     Ni1963   1.943       .  S
O1947      C1953   1.283       .  A
O1948      C1953   1.275       .  A
C1949      C2760   1.508       .  S
O1950      C1952   1.264       .  A
O1951     Ni1962   1.931       .  S
C1952      O1958   1.271       .  A
C1952      C2743   1.470       .  S
C1953      C2771   1.493       .  S
H1954      O1955   0.966       .  S
O1955     Ni1963   1.947       .  S
O1955     Ni1957   1.927       .  S
O1955     Ni1962   1.918       .  S
O1956     Ni1957   1.949       .  S
Ni1957     O1961   1.929       .  S
Ni1957     O1959   1.915       .  S
O1958     Ni1963   1.929       .  S
C1960      O1961   1.271       .  A
C1960      C2704   1.497       .  S
O1965     Ni1973   1.940   1_545  S
O1965      C1975   1.287       .  A
O1966     Ni2929   1.937       .  S
O1966      C1976   1.286       .  A
O1967     Ni1973   1.916   1_545  S
O1967      C1977   1.278       .  A
O1968     Ni2929   1.921       .  S
O1968      C1978   1.280       .  A
O1969     Ni2930   1.940       .  S
O1969      C1978   1.286       .  A
O1970     Ni1974   1.939       .  S
O1970      C1977   1.286       .  A
O1971     Ni2930   1.906       .  S
O1971      C1976   1.278       .  A
O1972     Ni1974   1.909       .  S
O1972      C1975   1.278       .  A
Ni1973     O2922   1.937       .  S
Ni1973     O2924   1.921       .  S
Ni1973    Ni1974   2.384   1_565  S
Ni1974     O2925   1.940   1_545  S
Ni1974     O2927   1.906   1_545  S
C1975      C2673   1.492       .  S
C1976      C2659   1.506       .  S
C1977      C2645   1.488       .  S
C1978      C2690   1.495       .  S
O1979     Ni1987   1.928       .  S
O1979      C1989   1.282       .  A
O1980     Ni1987   1.926       .  S
O1980      C1990   1.283       .  A
O1981     Ni1987   1.922       .  S
O1981      C1991   1.282       .  A
O1982     Ni1987   1.920       .  S
O1982      C1992   1.282       .  A
O1983     Ni1988   1.931       .  S
O1983      C1992   1.282       .  A
O1984     Ni1988   1.922       .  S
O1984      C1991   1.283       .  A
O1985     Ni1988   1.936       .  S
O1985      C1990   1.285       .  A
O1986     Ni1988   1.927       .  S
O1986      C1989   1.283       .  A
Ni1987    Ni1988   2.381       .  S
C1989      C2617   1.494       .  S
C1990      C2589   1.508       .  S
C1991      C2634   1.514       .  S
C1992      C2606   1.486       .  S
O1993     Ni2001   1.907       .  S
O1993      C2003   1.279       .  A
O1994      C2004   1.280       .  A
O1995      C2005   1.279       .  A
O1996     Ni2001   1.903       .  S
O1996      C2006   1.279       .  A
O1997     Ni2002   1.913       .  S
O1997      C2006   1.281       .  A
O1998      C2005   1.280       .  A
O1999      C2004   1.278       .  A
O2000     Ni2002   1.911       .  S
O2000      C2003   1.280       .  A
Ni2001    Ni2002   2.390       .  S
C2003      C2547   1.472       .  S
C2004      C2578   1.469       .  S
C2005      C2533   1.472       .  S
C2006      C2561   1.495       .  S
C2007      C2522   1.506       .  S
C2007      C2012   1.406       .  A
C2008      C2701   1.495       .  S
C2008      C2009   1.406       .  A
C2009      C2010   1.405       .  A
C2009      H2014   1.084       .  S
C2010      C2676   1.513       .  S
C2011      C2631   1.507       .  S
C2011      C2012   1.411       .  A
C2012      H2013   1.084       .  S
C2015      C2732   1.492       .  S
C2015      C2972   1.414       .  A
C2015      C2020   1.415       .  A
C2016      C2505   1.490       .  S
C2016      C2971   1.414       .  A
C2016      C2017   1.391       .  A
C2017      C2018   1.396       .  A
C2017      H2022   1.085       .  S
C2018      C2564   1.483       .  S
C2018      C2975   1.421       .  A
C2019      C2620   1.516       .  S
C2019      C2974   1.421       .  A
C2019      C2020   1.414       .  A
C2020      H2021   1.083       .  S
C2023      C2494   1.492       .  S
C2023      C2024   1.416       .  A
C2023      C2028   1.409       .  A
C2024      C2855   1.493       .  S
C2024      C2025   1.398       .  A
C2025      C2026   1.403       .  A
C2025      H2030   1.084       .  S
C2026      C2536   1.497       .  S
C2026      C2027   1.423       .  A
C2027      C2662   1.505       .  S
C2027      C2028   1.404       .  A
C2028      H2029   1.084       .  S
C2031      C2774   1.504       .  S
C2031      C2032   1.422       .  A
C2031      C2036   1.403       .  A
C2032      C2477   1.489       .  S
C2032      C2033   1.414       .  A
C2033      C2034   1.404       .  A
C2033      H2038   1.084       .  S
C2034      C2687   1.504       .  S
C2034      C2035   1.411       .  A
C2035      C2575   1.479       .  S
C2035      C2036   1.398       .  A
C2036      H2037   1.085       .  S
C2039      C2788   1.486       .  S
C2039      C2996   1.421   1_545  A
C2039      C2044   1.410       .  A
C2040      C2463   1.505       .  S
C2040      C2995   1.421       .  A
C2040      C2041   1.407       .  A
C2041      C2042   1.405       .  A
C2041      H2046   1.084       .  S
C2042      C2550   1.480       .  S
C2042      C2999   1.409       .  A
C2043      C2603   1.497       .  S
C2043      C2998   1.409   1_545  A
C2043      C2044   1.392       .  A
C2044      H2045   1.085       .  S
C2047      C2816   1.513       .  S
C2047      C2052   1.413       .  A
C2048      C2449   1.513       .  S
C2048      C2049   1.417       .  A
C2049      C2050   1.405       .  A
C2049      H2054   1.084       .  S
C2050      C2592   1.509       .  S
C2051      C2648   1.497       .  S
C2051      C2052   1.406       .  A
C2052      H2053   1.084       .  S
O2055     Ni2061   1.916       .  S
O2055      C2076   1.271       .  A
O2056     Ni2079   1.927       .  S
O2056      C2065   1.274       .  A
O2057     Ni2061   1.908       .  S
O2057     Ni2079   1.921       .  S
O2057     Ni2073   1.933       .  S
O2057      H2080   0.974       .  S
C2058      O2075   1.281       .  A
C2058      O2067   1.277       .  A
C2058      C2410   1.482       .  S
O2059     Ni2078   1.913       .  S
O2059      C2065   1.267       .  A
O2060     Ni2078   1.910       .  S
O2060      C2062   1.268       .  A
Ni2061     O2064   1.923       .  S
Ni2061     O2066   1.887       .  S
C2062      O2072   1.277       .  A
C2062      C2519   1.505       .  S
O2063     Ni2079   1.926       .  S
O2063      C2069   1.271       .  A
O2064      C2069   1.265       .  A
C2065      C2424   1.481       .  S
O2066      C2068   1.271       .  A
O2067     Ni2078   1.915       .  S
C2068      O2074   1.287       .  A
C2068      C2438   1.497       .  S
C2069      C2508   1.485       .  S
H2070      O2071   0.964       .  S
O2071     Ni2079   1.908       .  S
O2071     Ni2073   1.897       .  S
O2071     Ni2078   1.893       .  S
O2072     Ni2073   1.950       .  S
Ni2073     O2077   1.919       .  S
Ni2073     O2075   1.937       .  S
O2074     Ni2079   1.980       .  S
C2076      O2077   1.272       .  A
C2076      C2480   1.485       .  S
O2081     Ni2087   1.925       .  S
O2081      C2102   1.269       .  A
O2082     Ni2105   1.922       .  S
O2082      C2091   1.274       .  A
O2083     Ni2087   1.911       .  S
O2083     Ni2105   1.920   1_556  S
O2083     Ni2099   1.916       .  S
O2083      H2106   0.966       .  S
C2084      O2101   1.277       .  A
C2084      O2093   1.279       .  A
C2084      C2379   1.497       .  S
O2085     Ni2104   1.945       .  S
O2085      C2091   1.276       .  A
O2086     Ni2104   1.906   1_556  S
O2086      C2088   1.269       .  A
Ni2087     O2090   1.917       .  S
Ni2087     O2092   1.912       .  S
C2088      O2098   1.276       .  A
C2088      C2452   1.502       .  S
O2089     Ni2105   1.920   1_556  S
O2089      C2095   1.273       .  A
O2090      C2095   1.274       .  A
C2091      C2365   1.507       .  S
O2092      C2094   1.270   1_556  A
O2093     Ni2104   1.934       .  S
C2094      O2100   1.280       .  A
C2094      C2396   1.500       .  S
C2095      C2491   1.477       .  S
H2096      O2097   0.965       .  S
O2097     Ni2105   1.901       .  S
O2097     Ni2099   1.913   1_554  S
O2097     Ni2104   1.907       .  S
O2098     Ni2099   1.951       .  S
Ni2099     O2103   1.927       .  S
Ni2099     O2101   1.912   1_556  S
O2100     Ni2105   1.952       .  S
C2102      O2103   1.272       .  A
C2102      C2466   1.490       .  S
O2107     Ni2115   1.926       .  S
O2107      C2117   1.280       .  A
O2108      C2118   1.280       .  A
O2109      C2119   1.287       .  A
O2110     Ni2115   1.946       .  S
O2110      C2120   1.288       .  A
O2111     Ni2116   1.910       .  S
O2111      C2120   1.279       .  A
O2112      C2119   1.279       .  A
O2113      C2118   1.286       .  A
O2114     Ni2116   1.942       .  S
O2114      C2117   1.286       .  A
Ni2115    Ni2116   2.382       .  S
C2117      C2323   1.498       .  S
C2118      C2340   1.496       .  S
C2119      C2354   1.505       .  S
C2120      C2309   1.510       .  S
O2121     Ni2129   1.914       .  S
O2121      C2131   1.280       .  A
O2122     Ni2129   1.914       .  S
O2122      C2132   1.280       .  A
O2123     Ni2129   1.896       .  S
O2123      C2133   1.277       .  A
O2124     Ni2129   1.901       .  S
O2124      C2134   1.278       .  A
O2125     Ni2130   1.913       .  S
O2125      C2134   1.280       .  A
O2126     Ni2130   1.906       .  S
O2126      C2133   1.280       .  A
O2127     Ni2130   1.919       .  S
O2127      C2132   1.281       .  A
O2128     Ni2130   1.926       .  S
O2128      C2131   1.282       .  A
Ni2129    Ni2130   2.394       .  S
C2131      C2284   1.479       .  S
C2132      C2267   1.477       .  S
C2133      C2295   1.471       .  S
C2134      C2253   1.469       .  S
C2135      C2435   1.500       .  S
C2135      C3092   1.443       .  A
C2135      C2140   1.412       .  A
C2136      C2715   1.544       .  S
C2136      C3091   1.443   1_545  A
C2136      C2137   1.428       .  A
C2137      C2138   1.406       .  A
C2137      H2142   1.078       .  S
C2138      C2312   1.506       .  S
C2138      C3095   1.411   1_545  A
C2139      C2281   1.502       .  S
C2139      C3094   1.411       .  A
C2139      C2140   1.398       .  A
C2140      H2141   1.085       .  S
O2143     Ni2151   1.920       .  S
O2143      C2153   1.283       .  A
O2144     Ni3107   1.917   1_545  S
O2144      C2154   1.280       .  A
O2145     Ni3107   1.919   1_545  S
O2145      C2155   1.281       .  A
O2146     Ni2151   1.910       .  S
O2146      C2156   1.279       .  A
O2147     Ni2152   1.911       .  S
O2147      C2156   1.281       .  A
O2148     Ni3108   1.918       .  S
O2148      C2155   1.281       .  A
O2149     Ni3108   1.913       .  S
O2149      C2154   1.280       .  A
O2150     Ni2152   1.906       .  S
O2150      C2153   1.278       .  A
Ni2151     O3100   1.917       .  S
Ni2151     O3101   1.919       .  S
Ni2151    Ni2152   2.386       .  S
Ni2152     O3104   1.918       .  S
Ni2152     O3105   1.913       .  S
C2153      C2197   1.485       .  S
C2154      C2239   1.477       .  S
C2155      C2225   1.482       .  S
C2156      C2211   1.502       .  S
C2157      C2393   1.502       .  S
C2157      C3114   1.423       .  A
C2157      C2162   1.396       .  A
C2158      C2830   1.491   1_565  S
C2158      C3113   1.423       .  A
C2158      C2159   1.416   1_565  A
C2159      C2160   1.405       .  A
C2159      H2164   1.084       .  S
C2160      C2326   1.514       .  S
C2160      C3117   1.414   1_545  A
C2161      C2298   1.475       .  S
C2161      C3116   1.414       .  A
C2161      C2162   1.399       .  A
C2162      H2163   1.085       .  S
C2165      C2757   1.504       .  S
C2165      C2166   1.425       .  A
C2165      C2170   1.404       .  A
C2166      C2407   1.501       .  S
C2166      C2167   1.419       .  A
C2167      C2168   1.407       .  A
C2167      H2172   1.084       .  S
C2168      C2337   1.508       .  S
C2168      C2169   1.412       .  A
C2169      C2228   1.485       .  S
C2169      C2170   1.397       .  A
C2170      H2171   1.085       .  S
C2173      C2368   1.502       .  S
C2173      C2174   1.421       .  A
C2173      C2178   1.407       .  A
C2174      C2802   1.499       .  S
C2174      C2175   1.408       .  A
C2175      C2176   1.406       .  A
C2175      H2180   1.084       .  S
C2176      C2242   1.506       .  S
C2176      C2177   1.424       .  A
C2177      C2351   1.507       .  S
C2177      C2178   1.406       .  A
C2178      H2179   1.084       .  S
C2181      C2746   1.492       .  S
C2181      C2186   1.403       .  A
C2182      C2421   1.495       .  S
C2182      C2183   1.409       .  A
C2183      C2184   1.398       .  A
C2183      H2188   1.085       .  S
C2184      C2200   1.490       .  S
C2185      C2256   1.481       .  S
C2185      C2186   1.390       .  A
C2186      H2187   1.085       .  S
C2189      C2844   1.481       .  S
C2189      C2194   1.395       .  A
C2190      C2382   1.488       .  S
C2190      C2191   1.398       .  A
C2191      C2192   1.404       .  A
C2191      H2196   1.084       .  S
C2192      C2214   1.488       .  S
C2193      C2270   1.497       .  S
C2193      C2194   1.397       .  A
C2194      H2195   1.085       .  S
C2197      C2198   1.414       .  A
C2197      C2202   1.411       .  A
C2198      C2199   1.413       .  A
C2198      C2203   1.451       .  S
C2199      C2200   1.413       .  A
C2199      C2206   1.447       .  S
C2200      C2201   1.407       .  A
C2201      C2202   1.401       .  A
C2201      C2204   1.448       .  S
C2202      C2205   1.449       .  S
C2203      N2210   1.157       .  T
C2204      N2209   1.157       .  T
C2205      N3163   1.158       .  T
C2206      N2208   1.156       .  T
N2207      C3161   1.158       .  T
C2211      C2212   1.424       .  A
C2211      C2216   1.424       .  A
C2212      C2213   1.406       .  A
C2212      C2217   1.448       .  S
C2213      C2214   1.404       .  A
C2214      C2215   1.411       .  A
C2215      C2216   1.411       .  A
C2215      C2218   1.453       .  S
C2216      C2219   1.452       .  S
C2218      N2223   1.157       .  T
C2219      N2221   1.158       .  T
C2220      N2222   1.157   1_455  T
C2225      C2226   1.409       .  A
C2225      C2230   1.413       .  A
C2226      C2227   1.406       .  A
C2226      C2231   1.444       .  S
C2227      C2228   1.409       .  A
C2227      C2234   1.452       .  S
C2228      C2229   1.411       .  A
C2229      C2230   1.411       .  A
C2229      C2232   1.449       .  S
C2230      C2233   1.450       .  S
C2231      N3194   1.155       .  T
C2232      N2237   1.157       .  T
C2233      N2235   1.157       .  T
C2234      N2236   1.157       .  T
N2238      C3187   1.155       .  T
C2239      C2240   1.406       .  A
C2239      C2244   1.408       .  A
C2240      C2241   1.410       .  A
C2240      C2245   1.448       .  S
C2241      C2242   1.416       .  A
C2241      C2248   1.448       .  S
C2242      C2243   1.421       .  A
C2243      C2244   1.411       .  A
C2243      C2246   1.448       .  S
C2244      C2247   1.453       .  S
C2245      N2252   1.156       .  T
C2246      N2251   1.157       .  T
C2247      N2249   1.157       .  T
C2248      N2250   1.157       .  T
C2253      C2254   1.412       .  A
C2253      C2258   1.409       .  A
C2254      C2255   1.408       .  A
C2254      C2259   1.450       .  S
C2255      C2256   1.410       .  A
C2255      C2262   1.450       .  S
C2256      C2257   1.409       .  A
C2257      C2258   1.401       .  A
C2258      C2261   1.453       .  S
C2259      N2266   1.157       .  T
C2260      N2265   1.156       .  T
C2262      N2264   1.157       .  T
C2267      C2268   1.411       .  A
C2267      C2272   1.410       .  A
C2268      C2269   1.408       .  A
C2268      C2273   1.451       .  S
C2269      C2270   1.416       .  A
C2269      C2276   1.452       .  S
C2270      C2271   1.414       .  A
C2271      C2272   1.409       .  A
C2272      C2275   1.451       .  S
C2273      N2280   1.157       .  T
C2274      N2279   1.157       .  T
C2276      N2278   1.157       .  T
C2281      C2282   1.418       .  A
C2281      C2286   1.416       .  A
C2282      C2283   1.408       .  A
C2282      C2287   1.445       .  S
C2283      C2284   1.403       .  A
C2283      C2290   1.451       .  S
C2284      C2285   1.409       .  A
C2285      C2286   1.414       .  A
C2285      C2288   1.448       .  S
C2286      C2289   1.448       .  S
C2287      N2294   1.155       .  T
C2288      N2293   1.157       .  T
C2289      N2291   1.157       .  T
C2290      N2292   1.157       .  T
C2295      C2296   1.415       .  A
C2295      C2300   1.412       .  A
C2296      C2297   1.402       .  A
C2296      C2301   1.453       .  S
C2297      C2298   1.408       .  A
C2297      C2304   1.451       .  S
C2298      C2299   1.411       .  A
C2299      C2300   1.403       .  A
C2299      C2302   1.452       .  S
C2300      C2303   1.452       .  S
C2301      N2308   1.157       .  T
C2302      N2307   1.157       .  T
C2303      N2305   1.157       .  T
C2304      N2306   1.157       .  T
C2309      C2310   1.419       .  A
C2309      C2314   1.424       .  A
C2310      C2311   1.419       .  A
C2310      C2315   1.450       .  S
C2311      C2312   1.415       .  A
C2311      C2318   1.450       .  S
C2312      C2313   1.410       .  A
C2313      C2314   1.413       .  A
C2313      C3272   1.451   1_545  S
C2314      C3273   1.452       .  S
C2315      N2322   1.157       .  T
C2316      C3269   1.451       .  S
C2316      N2321   1.157       .  T
C2317      C3270   1.452       .  S
C2317      N2319   1.157       .  T
C2318      N2320   1.157       .  T
C2323      C2324   1.414       .  A
C2323      C2328   1.411       .  A
C2324      C2325   1.419       .  A
C2324      C2329   1.449       .  S
C2325      C2326   1.416       .  A
C2325      C2332   1.450       .  S
C2326      C2327   1.416       .  A
C2327      C2328   1.418       .  A
C2327      C3286   1.448       .  S
C2328      C3287   1.449       .  S
C2329      N2336   1.157       .  T
C2330      C3283   1.448       .  S
C2330      N2335   1.157       .  T
C2331      C3284   1.449       .  S
C2331      N2333   1.157       .  T
C2332      N2334   1.157       .  T
C2337      C2338   1.415       .  A
C2337      C2342   1.414       .  A
C2338      C2339   1.418       .  A
C2338      C2343   1.449       .  S
C2339      C2340   1.413       .  A
C2339      C2346   1.448       .  S
C2340      C2341   1.413       .  A
C2341      C2342   1.416       .  A
C2341      C2344   1.448       .  S
C2342      C2345   1.449       .  S
C2343      N2350   1.157       .  T
C2344      N2349   1.156       .  T
C2345      N2347   1.157       .  T
C2346      N2348   1.157       .  T
C2351      C2352   1.418       .  A
C2351      C2356   1.412       .  A
C2352      C2353   1.417       .  A
C2352      C2357   1.450       .  S
C2353      C2354   1.416       .  A
C2353      C2360   1.450       .  S
C2354      C2355   1.421       .  A
C2355      C2356   1.412       .  A
C2355      C2358   1.451       .  S
C2356      C2359   1.452       .  S
C2357      N2364   1.157       .  T
C2359      N2361   1.157       .  T
C2360      N2362   1.157       .  T
C2365      C2366   1.416       .  A
C2365      C2370   1.420       .  A
C2366      C2367   1.418       .  A
C2366      C2371   1.451       .  S
C2367      C2368   1.418       .  A
C2367      C2374   1.451       .  S
C2368      C2369   1.410       .  A
C2369      C2370   1.417       .  A
C2369      C2372   1.449       .  S
C2370      C2373   1.449       .  S
C2371      N2378   1.157       .  T
C2372      N2377   1.157       .  T
C2373      N2375   1.156   1_554  T
C2374      N2376   1.157       .  T
C2379      C2380   1.417       .  A
C2379      C2384   1.423       .  A
C2380      C2381   1.412       .  A
C2380      C2385   1.449       .  S
C2381      C2382   1.409       .  A
C2381      C2388   1.449       .  S
C2382      C2383   1.408       .  A
C2383      C2384   1.408       .  A
C2383      C2386   1.453       .  S
C2384      C2387   1.453       .  S
C2385      N2392   1.157   1_554  T
C2386      N2391   1.157       .  T
C2387      N2389   1.158       .  T
C2388      N2390   1.157       .  T
C2393      C2394   1.416       .  A
C2393      C2398   1.413       .  A
C2394      C2395   1.420       .  A
C2394      C2399   1.449       .  S
C2395      C2396   1.416       .  A
C2395      C2402   1.450       .  S
C2396      C2397   1.415       .  A
C2397      C2398   1.413       .  A
C2397      C2400   1.450       .  S
C2398      C2401   1.449       .  S
C2399      N2406   1.157       .  T
C2400      N2405   1.157   1_554  T
C2401      N2403   1.157       .  T
C2402      N2404   1.157       .  T
C2407      C2408   1.418       .  A
C2407      C2412   1.419       .  A
C2408      C2409   1.415       .  A
C2408      C2413   1.446       .  S
C2409      C2410   1.407       .  A
C2409      C2416   1.451       .  S
C2410      C2411   1.410       .  A
C2411      C2412   1.410       .  A
C2411      C2414   1.452       .  S
C2412      C2415   1.453       .  S
C2413      N2420   1.157       .  T
C2414      N2419   1.157       .  T
C2415      N2417   1.157       .  T
C2416      N2418   1.157       .  T
C2421      C2422   1.415       .  A
C2421      C2426   1.417       .  A
C2422      C2423   1.416       .  A
C2423      C2424   1.409       .  A
C2423      C2430   1.450       .  S
C2424      C2425   1.410       .  A
C2425      C2426   1.409       .  A
C2425      C2428   1.453       .  S
C2426      C2429   1.450       .  S
C2427      N2434   1.157   1_455  T
C2428      N2433   1.157       .  T
C2429      N2431   1.157       .  T
C2430      N2432   1.157       .  T
C2435      C2436   1.418       .  A
C2435      C2440   1.413       .  A
C2436      C2437   1.421       .  A
C2436      C2441   1.449       .  S
C2437      C2438   1.418       .  A
C2437      C2444   1.449       .  S
C2438      C2439   1.412       .  A
C2439      C2440   1.405       .  A
C2439      C2442   1.453       .  S
C2440      C2443   1.447       .  S
C2441      N3404   1.157       .  T
C2442      N2447   1.157       .  T
C2443      N2445   1.156       .  T
C2444      N2446   1.157       .  T
N2448      C3397   1.157   1_545  T
C2449      C2450   1.418       .  A
C2449      C2454   1.421       .  A
C2450      C2451   1.422       .  A
C2450      C2455   1.448       .  S
C2451      C2452   1.416       .  A
C2451      C2458   1.449       .  S
C2452      C2453   1.411       .  A
C2453      C2454   1.411       .  A
C2453      C2456   1.450       .  S
C2454      C2457   1.453       .  S
C2455      N2462   1.157       .  T
C2456      N2461   1.157       .  T
C2457      N2459   1.157       .  T
C2458      N2460   1.157       .  T
C2463      C2464   1.417       .  A
C2463      C2468   1.418       .  A
C2464      C2465   1.418       .  A
C2464      C2469   1.447       .  S
C2465      C2466   1.410       .  A
C2465      C2472   1.449       .  S
C2466      C2467   1.411       .  A
C2467      C2468   1.412       .  A
C2467      C2470   1.452       .  S
C2468      C2471   1.451       .  S
C2469      N2476   1.157       .  T
C2470      N2475   1.157       .  T
C2471      N2473   1.157       .  T
C2472      N2474   1.157   1_556  T
C2477      C2478   1.410       .  A
C2477      C2482   1.415       .  A
C2478      C2479   1.409       .  A
C2478      C2483   1.450       .  S
C2479      C2480   1.414       .  A
C2479      C2486   1.452       .  S
C2480      C2481   1.411       .  A
C2481      C2482   1.414       .  A
C2481      C2484   1.451       .  S
C2482      C2485   1.450       .  S
C2483      N2490   1.157       .  T
C2484      N2489   1.157       .  T
C2485      N2487   1.157       .  T
C2486      N2488   1.157       .  T
C2491      C2492   1.408       .  A
C2491      C2496   1.406       .  A
C2492      C2493   1.409       .  A
C2492      C2497   1.452       .  S
C2493      C2494   1.417       .  A
C2493      C2500   1.451       .  S
C2494      C2495   1.415       .  A
C2495      C2496   1.412       .  A
C2495      C2498   1.445       .  S
C2496      C2499   1.451       .  S
C2497      N2504   1.157       .  T
C2498      N2503   1.157       .  T
C2499      N2501   1.157   1_556  T
C2500      N2502   1.157       .  T
C2505      C2506   1.411       .  A
C2505      C2510   1.416       .  A
C2506      C2507   1.405       .  A
C2506      C2511   1.451       .  S
C2507      C2508   1.415       .  A
C2507      C2514   1.454       .  S
C2508      C2509   1.411       .  A
C2509      C2510   1.417       .  A
C2509      C2512   1.450       .  S
C2510      C2513   1.449       .  S
C2511      N3474   1.157       .  T
C2512      N2517   1.157       .  T
C2513      N2515   1.157       .  T
C2514      N2516   1.157       .  T
N2518      C3467   1.157       .  T
C2519      C2520   1.419       .  A
C2519      C2524   1.415       .  A
C2520      C2521   1.416       .  A
C2520      C2525   1.452       .  S
C2521      C2522   1.411       .  A
C2521      C2528   1.448       .  S
C2522      C2523   1.418       .  A
C2523      C2524   1.421       .  A
C2523      C2526   1.449       .  S
C2524      C2527   1.450       .  S
C2525      N2532   1.157       .  T
C2526      N2531   1.157       .  T
C2527      N2529   1.157       .  T
C2528      N2530   1.157       .  T
C2533      C2534   1.409       .  A
C2533      C2538   1.408       .  A
C2534      C2535   1.408       .  A
C2534      C2539   1.452       .  S
C2535      C2536   1.419       .  A
C2535      C2542   1.451       .  S
C2536      C2537   1.414       .  A
C2537      C2538   1.406       .  A
C2537      C2540   1.449       .  S
C2538      C2541   1.450       .  S
C2539      N2546   1.157   1_655  T
C2540      N2545   1.157       .  T
C2541      N2543   1.157       .  T
C2542      N2544   1.157       .  T
C2547      C2548   1.410       .  A
C2547      C2552   1.412       .  A
C2548      C2549   1.407       .  A
C2548      C2553   1.451       .  S
C2549      C2550   1.411       .  A
C2549      C2556   1.449       .  S
C2550      C2551   1.410       .  A
C2551      C2552   1.406       .  A
C2551      C3510   1.450       .  S
C2552      C3511   1.452       .  S
C2553      N2560   1.157       .  T
C2554      C3507   1.450       .  S
C2554      N2559   1.157       .  T
C2555      C3508   1.452       .  S
C2555      N2557   1.157       .  T
C2556      N2558   1.157       .  T
C2561      C2562   1.421       .  A
C2561      C2566   1.424       .  A
C2562      C2563   1.406       .  A
C2562      C2567   1.452       .  S
C2563      C2564   1.411       .  A
C2563      C2570   1.453       .  S
C2564      C2565   1.405       .  A
C2565      C2566   1.406       .  A
C2565      C3524   1.453       .  S
C2566      C3525   1.449       .  S
C2567      N2574   1.158       .  T
C2568      C3521   1.453   1_545  S
C2568      N2573   1.157       .  T
C2569      C3522   1.449       .  S
C2569      N2571   1.156       .  T
C2570      N2572   1.157       .  T
C2575      C2576   1.409       .  A
C2575      C2580   1.411       .  A
C2576      C2577   1.402       .  A
C2576      C2581   1.449       .  S
C2577      C2578   1.406       .  A
C2577      C2584   1.448       .  S
C2578      C2579   1.410       .  A
C2579      C2580   1.409       .  A
C2579      C2582   1.450       .  S
C2580      C2583   1.449       .  S
C2581      N2588   1.157       .  T
C2582      N2587   1.157       .  T
C2583      N2585   1.157       .  T
C2589      C2590   1.418       .  A
C2589      C2594   1.420       .  A
C2590      C2591   1.413       .  A
C2590      C2595   1.450       .  S
C2591      C2592   1.413       .  A
C2592      C2593   1.413       .  A
C2593      C2594   1.420       .  A
C2593      C2596   1.450       .  S
C2594      C2597   1.449       .  S
C2596      N2601   1.157       .  T
C2597      N2599   1.157       .  T
C2598      N2600   1.157       .  T
C2603      C2604   1.412       .  A
C2603      C2608   1.414       .  A
C2604      C2605   1.410       .  A
C2604      C2609   1.447       .  S
C2605      C2606   1.406       .  A
C2605      C2612   1.447       .  S
C2606      C2607   1.411       .  A
C2607      C2608   1.416       .  A
C2607      C2610   1.449       .  S
C2608      C2611   1.448       .  S
C2609      N2616   1.157       .  T
C2610      N2615   1.157       .  T
C2611      N2613   1.157       .  T
C2612      N2614   1.156       .  T
C2617      C2618   1.412       .  A
C2617      C2622   1.411       .  A
C2618      C2619   1.416       .  A
C2618      C2623   1.452       .  S
C2619      C2620   1.419       .  A
C2619      C2626   1.448       .  S
C2620      C2621   1.419       .  A
C2621      C2622   1.417       .  A
C2621      C3580   1.449       .  S
C2622      C2625   1.450       .  S
C2623      N2630   1.157       .  T
C2624      C3577   1.449       .  S
C2624      N2629   1.157       .  T
C2625      N2627   1.157       .  T
C2626      N2628   1.156       .  T
C2631      C2632   1.409       .  A
C2631      C2636   1.415       .  A
C2632      C2633   1.414       .  A
C2632      C2637   1.452       .  S
C2633      C2634   1.425       .  A
C2633      C2640   1.448       .  S
C2634      C2635   1.424       .  A
C2635      C2636   1.415       .  A
C2635      C2638   1.452       .  S
C2637      N2644   1.157       .  T
C2639      N2641   1.157       .  T
C2640      N2642   1.156       .  T
C2645      C2646   1.413       .  A
C2645      C2650   1.412       .  A
C2646      C2647   1.414       .  A
C2646      C2651   1.448       .  S
C2647      C2648   1.412       .  A
C2647      C2654   1.450       .  S
C2648      C2649   1.411       .  A
C2649      C2650   1.412       .  A
C2650      C2653   1.449       .  S
C2651      N2658   1.156       .  T
C2652      N2657   1.157       .  T
C2654      N2656   1.157       .  T
C2659      C2660   1.424       .  A
C2659      C2664   1.418       .  A
C2660      C2661   1.411       .  A
C2660      C2665   1.452       .  S
C2661      C2662   1.410       .  A
C2661      C2668   1.452       .  S
C2662      C2663   1.417       .  A
C2663      C2664   1.417       .  A
C2663      C2666   1.450       .  S
C2664      C2667   1.451       .  S
C2665      N2672   1.157       .  T
C2666      N2671   1.157       .  T
C2667      N2669   1.158       .  T
C2668      N2670   1.157       .  T
C2673      C2674   1.411       .  A
C2673      C2678   1.415       .  A
C2674      C2675   1.417       .  A
C2674      C2679   1.451       .  S
C2675      C2676   1.422       .  A
C2675      C2682   1.449       .  S
C2676      C2677   1.414       .  A
C2677      C2678   1.410       .  A
C2679      N2686   1.158       .  T
C2680      N2685   1.157       .  T
C2681      N2683   1.158       .  T
C2682      N2684   1.157       .  T
C2687      C2688   1.411       .  A
C2687      C2692   1.413       .  A
C2688      C2689   1.416       .  A
C2688      C2693   1.449       .  S
C2689      C2690   1.415       .  A
C2689      C2696   1.448       .  S
C2690      C2691   1.413       .  A
C2691      C2692   1.416       .  A
C2691      C2694   1.450       .  S
C2692      C2695   1.448       .  S
C2693      N2700   1.157       .  T
C2694      N3655   1.157       .  T
C2695      N2697   1.157       .  T
C2696      N2698   1.156       .  T
N2699      C3650   1.157       .  T
C2701      C2702   1.416       .  A
C2701      C2706   1.411       .  A
C2702      C2703   1.414       .  A
C2702      C2707   1.450       .  S
C2703      C2704   1.413       .  A
C2703      C2710   1.450       .  S
C2704      C2705   1.420       .  A
C2705      C2706   1.414       .  A
C2705      C2708   1.453       .  S
C2707      N2714   1.157       .  T
C2708      N2713   1.158       .  T
C2709      N2711   1.157       .  T
C2710      N2712   1.157       .  T
C2715      C2716   1.422       .  A
C2715      C2720   1.412       .  A
C2716      C2717   1.416       .  A
C2716      C2721   1.452       .  S
C2717      C2718   1.416       .  A
C2717      C2724   1.449       .  S
C2718      C2719   1.416       .  A
C2719      C2720   1.412       .  A
C2719      C2722   1.451       .  S
C2720      C3679   1.447   1_545  S
C2721      N2728   1.158       .  T
C2722      N2727   1.157       .  T
C2723      C3676   1.447       .  S
C2723      N2725   1.158       .  T
C2724      N2726   1.157       .  T
C2729      C2730   1.417       .  A
C2729      C2734   1.416       .  A
C2730      C2731   1.407       .  A
C2730      C2735   1.451       .  S
C2731      C2732   1.410       .  A
C2731      C2738   1.451       .  S
C2732      C2733   1.413       .  A
C2733      C2734   1.416       .  A
C2733      C2736   1.447       .  S
C2734      C2737   1.451       .  S
C2735      N2742   1.157       .  T
C2736      N3697   1.157       .  T
C2737      N2739   1.158       .  T
C2738      N2740   1.157       .  T
N2741      C3692   1.157       .  T
C2743      C2744   1.402       .  A
C2743      C2748   1.408       .  A
C2744      C2745   1.406       .  A
C2744      C2749   1.451       .  S
C2745      C2746   1.421       .  A
C2745      C2752   1.448       .  S
C2746      C2747   1.415       .  A
C2747      C2748   1.410       .  A
C2747      C2750   1.446       .  S
C2748      C2751   1.451       .  S
C2749      N2756   1.157       .  T
C2750      N2755   1.157       .  T
C2751      N2753   1.157       .  T
C2752      N2754   1.156       .  T
C2757      C2758   1.414       .  A
C2757      C2762   1.417       .  A
C2758      C2759   1.422       .  A
C2758      C2763   1.448       .  S
C2759      C2760   1.419       .  A
C2759      C2766   1.450       .  S
C2760      C2761   1.420       .  A
C2761      C2762   1.410       .  A
C2761      C2764   1.453       .  S
C2762      C2765   1.454       .  S
C2763      N2770   1.157       .  T
C2764      N2769   1.158       .  T
C2765      N2767   1.157       .  T
C2766      N2768   1.157       .  T
C2771      C2772   1.412       .  A
C2771      C2776   1.414       .  A
C2772      C2773   1.421       .  A
C2772      C2777   1.450       .  S
C2773      C2774   1.418       .  A
C2773      C2780   1.447       .  S
C2774      C2775   1.416       .  A
C2775      C2776   1.409       .  A
C2775      C2778   1.449       .  S
C2776      C2779   1.454       .  S
C2777      N2784   1.157       .  T
C2778      N2783   1.156       .  T
C2779      N2781   1.157       .  T
C2780      N2782   1.157       .  T
C2785      C2786   1.409       .  A
C2785      C2790   1.408       .  A
C2786      C2787   1.411       .  A
C2786      C2791   1.452       .  S
C2787      C2788   1.415       .  A
C2787      C2794   1.447       .  S
C2788      C2789   1.416       .  A
C2789      C2790   1.401       .  A
C2789      C2792   1.451       .  S
C2790      C2793   1.454       .  S
C2791      N2798   1.157       .  T
C2792      N2797   1.157       .  T
C2793      N2795   1.158       .  T
C2794      N2796   1.157       .  T
C2799      C2800   1.413       .  A
C2799      C2804   1.408       .  A
C2800      C2801   1.416       .  A
C2800      C2805   1.451       .  S
C2801      C2802   1.413       .  A
C2801      C2808   1.447       .  S
C2802      C2803   1.419       .  A
C2803      C2804   1.412       .  A
C2803      C2806   1.451       .  S
C2804      C2807   1.451       .  S
C2805      N2812   1.157       .  T
C2806      N2811   1.158       .  T
C2807      N2809   1.157       .  T
C2808      N2810   1.157       .  T
C2813      C2814   1.427       .  A
C2813      C2818   1.421       .  A
C2814      C2815   1.416       .  A
C2814      C2819   1.452       .  S
C2815      C2816   1.411       .  A
C2815      C2822   1.450       .  S
C2816      C2817   1.419       .  A
C2817      C2818   1.421       .  A
C2817      C2820   1.452       .  S
C2818      C2821   1.451       .  S
C2819      N2826   1.158   1_556  T
C2821      N2823   1.158       .  T
C2822      N2824   1.157   1_655  T
C2827      C2828   1.416       .  A
C2827      C2832   1.417       .  A
C2828      C2829   1.406       .  A
C2828      C2833   1.453       .  S
C2829      C2830   1.410       .  A
C2829      C2836   1.448       .  S
C2830      C2831   1.415       .  A
C2831      C2832   1.418       .  A
C2831      C2834   1.450       .  S
C2832      C2835   1.450       .  S
C2833      N2840   1.157   1_554  T
C2834      N2839   1.157       .  T
C2835      N2837   1.158       .  T
C2836      N3794   1.157       .  T
N2838      C3792   1.157       .  T
C2841      C2842   1.410       .  A
C2841      C2846   1.420       .  A
C2842      C2843   1.402       .  A
C2842      C2847   1.451       .  S
C2843      C2844   1.409       .  A
C2843      C2850   1.448       .  S
C2844      C2845   1.411       .  A
C2845      C2846   1.406       .  A
C2845      C2848   1.453       .  S
C2846      C2849   1.453       .  S
C2847      N2854   1.157   1_554  T
C2848      N2853   1.157       .  T
C2849      N2851   1.158       .  T
C2855      C2856   1.409       .  A
C2855      C2860   1.416       .  A
C2856      C2857   1.412       .  A
C2856      C2861   1.450       .  S
C2857      C2858   1.418       .  A
C2857      C2864   1.452       .  S
C2858      C2859   1.410       .  A
C2859      C2860   1.414       .  A
C2859      C2862   1.448       .  S
C2860      C2863   1.450       .  S
C2861      N2868   1.157       .  T
C2862      N2867   1.157       .  T
C2863      N2865   1.158       .  T
C2864      N2866   1.157       .  T
O2869     Ni2875   1.923       .  S
O2869      C2890   1.272       .  A
O2870     Ni2893   1.940   1_556  S
O2870      C2879   1.274       .  A
O2871     Ni2875   1.893       .  S
O2871     Ni2893   1.906       .  S
O2871     Ni2887   1.901       .  S
O2871      H2894   0.967       .  S
C2872      O2889   1.274       .  A
C2872      O2881   1.276       .  A
C2872      C3741   1.469       .  S
O2873     Ni2892   1.909       .  S
O2873      C2879   1.263       .  A
O2874     Ni2892   1.901   1_554  S
O2874      C2876   1.265       .  A
Ni2875     O2878   1.918       .  S
Ni2875     O2880   1.904       .  S
C2876      O2886   1.275       .  A
C2876      C3755   1.486       .  S
O2877     Ni2893   1.906       .  S
O2877      C2883   1.279       .  A
O2878      C2883   1.278       .  A
C2879      C3814   1.491       .  S
O2880      C2882   1.267   1_554  A
O2881     Ni2892   1.908       .  S
C2882      O2888   1.278       .  A
C2882      C3769   1.520       .  S
C2883      C3797   1.480       .  S
H2884      O2885   0.966       .  S
O2885     Ni2893   1.916   1_556  S
O2885     Ni2887   1.910   1_556  S
O2885     Ni2892   1.903       .  S
O2886     Ni2887   1.944       .  S
Ni2887     O2891   1.918       .  S
Ni2887     O2889   1.912   1_554  S
O2888     Ni2893   1.955   1_556  S
C2890      O2891   1.270       .  A
C2890      C3783   1.499       .  S
O2895     Ni2901   1.918       .  S
O2895      C2916   1.265       .  A
O2896     Ni2919   1.926       .  S
O2896      C2905   1.274       .  A
O2897     Ni2901   1.904       .  S
O2897     Ni2919   1.907       .  S
O2897     Ni2913   1.907       .  S
O2897      H2920   0.966       .  S
C2898      O2915   1.269       .  A
C2898      O2907   1.271       .  A
C2898      C3674   1.497       .  S
O2899     Ni2918   1.924       .  S
O2899      C2905   1.272       .  A
O2900     Ni2918   1.897       .  S
O2900      C2902   1.271       .  A
Ni2901     O2904   1.911       .  S
Ni2901     O2906   1.889       .  S
C2902      O2912   1.280       .  A
C2902      C3685   1.496       .  S
O2903     Ni2919   1.943       .  S
O2903      C2909   1.283       .  A
O2904      C2909   1.275       .  A
C2905      C3716   1.508       .  S
O2906      C2908   1.264       .  A
O2907     Ni2918   1.931       .  S
C2908      O2914   1.271       .  A
C2908      C3699   1.470       .  S
C2909      C3727   1.493       .  S
H2910      O2911   0.966       .  S
O2911     Ni2919   1.947       .  S
O2911     Ni2913   1.927       .  S
O2911     Ni2918   1.918       .  S
O2912     Ni2913   1.949       .  S
Ni2913     O2917   1.929       .  S
Ni2913     O2915   1.915       .  S
O2914     Ni2919   1.929       .  S
C2916      O2917   1.271       .  A
C2916      C3660   1.497       .  S
O2921     Ni2929   1.940       .  S
O2921      C2931   1.287       .  A
O2922      C2932   1.286       .  A
O2923     Ni2929   1.916       .  S
O2923      C2933   1.278       .  A
O2924      C2934   1.280       .  A
O2925      C2934   1.286       .  A
O2926     Ni2930   1.939       .  S
O2926      C2933   1.286       .  A
O2927      C2932   1.278       .  A
O2928     Ni2930   1.909       .  S
O2928      C2931   1.278       .  A
Ni2929    Ni2930   2.384       .  S
C2931      C3629   1.492       .  S
C2932      C3615   1.506       .  S
C2933      C3601   1.488       .  S
C2934      C3646   1.495       .  S
O2935     Ni2943   1.928       .  S
O2935      C2945   1.282       .  A
O2936     Ni2943   1.926       .  S
O2936      C2946   1.283       .  A
O2937     Ni2943   1.922       .  S
O2937      C2947   1.282       .  A
O2938     Ni2943   1.920       .  S
O2938      C2948   1.282       .  A
O2939     Ni2944   1.931       .  S
O2939      C2948   1.282       .  A
O2940     Ni2944   1.922       .  S
O2940      C2947   1.283       .  A
O2941     Ni2944   1.936       .  S
O2941      C2946   1.285       .  A
O2942     Ni2944   1.927       .  S
O2942      C2945   1.283       .  A
Ni2943    Ni2944   2.381       .  S
C2945      C3573   1.494       .  S
C2946      C3545   1.508       .  S
C2947      C3590   1.514       .  S
C2948      C3562   1.486       .  S
O2949     Ni2957   1.907       .  S
O2949      C2959   1.279       .  A
O2950      C2960   1.280       .  A
O2951      C2961   1.279       .  A
O2952     Ni2957   1.903       .  S
O2952      C2962   1.279       .  A
O2953     Ni2958   1.913       .  S
O2953      C2962   1.281       .  A
O2954      C2961   1.280       .  A
O2955      C2960   1.278       .  A
O2956     Ni2958   1.911       .  S
O2956      C2959   1.280       .  A
Ni2957    Ni2958   2.390       .  S
C2959      C3503   1.472       .  S
C2960      C3534   1.469       .  S
C2961      C3489   1.472       .  S
C2962      C3517   1.495       .  S
C2963      C3478   1.506       .  S
C2963      C2968   1.406       .  A
C2964      C3657   1.495       .  S
C2964      C2965   1.406       .  A
C2965      C2966   1.405       .  A
C2965      H2970   1.084       .  S
C2966      C3632   1.513       .  S
C2967      C3587   1.507       .  S
C2967      C2968   1.411       .  A
C2968      H2969   1.084       .  S
C2971      C3688   1.492       .  S
C2971      C2976   1.415       .  A
C2972      C3461   1.490   1_545  S
C2972      C2973   1.391   1_545  A
C2973      C2974   1.396   1_565  A
C2973      H2978   1.085       .  S
C2974      C3520   1.483   1_545  S
C2975      C3576   1.516       .  S
C2975      C2976   1.414       .  A
C2976      H2977   1.083       .  S
C2979      C3450   1.492       .  S
C2979      C2980   1.416       .  A
C2979      C2984   1.409       .  A
C2980      C3811   1.493       .  S
C2980      C2981   1.398       .  A
C2981      C2982   1.403       .  A
C2981      H2986   1.084       .  S
C2982      C3492   1.497       .  S
C2982      C2983   1.423       .  A
C2983      C3618   1.505       .  S
C2983      C2984   1.404       .  A
C2984      H2985   1.084       .  S
C2987      C3730   1.504       .  S
C2987      C2988   1.422       .  A
C2987      C2992   1.403       .  A
C2988      C3433   1.489       .  S
C2988      C2989   1.414       .  A
C2989      C2990   1.404       .  A
C2989      H2994   1.084       .  S
C2990      C3643   1.504       .  S
C2990      C2991   1.411       .  A
C2991      C3531   1.479       .  S
C2991      C2992   1.398       .  A
C2992      H2993   1.085       .  S
C2995      C3744   1.486       .  S
C2995      C3000   1.410       .  A
C2996      C3419   1.505       .  S
C2996      C2997   1.407       .  A
C2997      C2998   1.405       .  A
C2997      H3002   1.084       .  S
C2998      C3506   1.480       .  S
C2999      C3559   1.497       .  S
C2999      C3000   1.392       .  A
C3000      H3001   1.085       .  S
C3003      C3772   1.513       .  S
C3003      C3008   1.413       .  A
C3004      C3405   1.513       .  S
C3004      C3005   1.417       .  A
C3005      C3006   1.405       .  A
C3005      H3010   1.084       .  S
C3006      C3548   1.509       .  S
C3007      C3604   1.497       .  S
C3007      C3008   1.406       .  A
C3008      H3009   1.084       .  S
O3011     Ni3017   1.916       .  S
O3011      C3032   1.271       .  A
O3012     Ni3035   1.927       .  S
O3012      C3021   1.274       .  A
O3013     Ni3017   1.908       .  S
O3013     Ni3035   1.921       .  S
O3013     Ni3029   1.933       .  S
O3013      H3036   0.974       .  S
C3014      O3031   1.281       .  A
C3014      O3023   1.277       .  A
C3014      C3366   1.482       .  S
O3015     Ni3034   1.913       .  S
O3015      C3021   1.267       .  A
O3016     Ni3034   1.910       .  S
O3016      C3018   1.268       .  A
Ni3017     O3020   1.923       .  S
Ni3017     O3022   1.887       .  S
C3018      O3028   1.277       .  A
C3018      C3475   1.505       .  S
O3019     Ni3035   1.926       .  S
O3019      C3025   1.271       .  A
O3020      C3025   1.265       .  A
C3021      C3380   1.481       .  S
O3022      C3024   1.271       .  A
O3023     Ni3034   1.915       .  S
C3024      O3030   1.287       .  A
C3024      C3394   1.497       .  S
C3025      C3464   1.485       .  S
H3026      O3027   0.964       .  S
O3027     Ni3035   1.908       .  S
O3027     Ni3029   1.897       .  S
O3027     Ni3034   1.893       .  S
O3028     Ni3029   1.950       .  S
Ni3029     O3033   1.919       .  S
Ni3029     O3031   1.937       .  S
O3030     Ni3035   1.980       .  S
C3032      O3033   1.272       .  A
C3032      C3436   1.485       .  S
O3037     Ni3043   1.925       .  S
O3037      C3058   1.269       .  A
O3038     Ni3061   1.922       .  S
O3038      C3047   1.274       .  A
O3039     Ni3043   1.911       .  S
O3039     Ni3061   1.920   1_556  S
O3039     Ni3055   1.916       .  S
O3039      H3062   0.966       .  S
C3040      O3057   1.277       .  A
C3040      O3049   1.279       .  A
C3040      C3335   1.497       .  S
O3041     Ni3060   1.945       .  S
O3041      C3047   1.276       .  A
O3042     Ni3060   1.906   1_556  S
O3042      C3044   1.269       .  A
Ni3043     O3046   1.917       .  S
Ni3043     O3048   1.912       .  S
C3044      O3054   1.276       .  A
C3044      C3408   1.502       .  S
O3045     Ni3061   1.920   1_556  S
O3045      C3051   1.273       .  A
O3046      C3051   1.274       .  A
C3047      C3321   1.507       .  S
O3048      C3050   1.270   1_556  A
O3049     Ni3060   1.934       .  S
C3050      O3056   1.280       .  A
C3050      C3352   1.500       .  S
C3051      C3447   1.477       .  S
H3052      O3053   0.965       .  S
O3053     Ni3061   1.901       .  S
O3053     Ni3055   1.913   1_554  S
O3053     Ni3060   1.907       .  S
O3054     Ni3055   1.951       .  S
Ni3055     O3059   1.927       .  S
Ni3055     O3057   1.912   1_556  S
O3056     Ni3061   1.952       .  S
C3058      O3059   1.272       .  A
C3058      C3422   1.490       .  S
O3063     Ni3071   1.926       .  S
O3063      C3073   1.280       .  A
O3064      C3074   1.280       .  A
O3065      C3075   1.287       .  A
O3066     Ni3071   1.946       .  S
O3066      C3076   1.288       .  A
O3067     Ni3072   1.910       .  S
O3067      C3076   1.279       .  A
O3068      C3075   1.279       .  A
O3069      C3074   1.286       .  A
O3070     Ni3072   1.942       .  S
O3070      C3073   1.286       .  A
Ni3071    Ni3072   2.382       .  S
C3073      C3279   1.498       .  S
C3074      C3296   1.496       .  S
C3075      C3310   1.505       .  S
C3076      C3265   1.510       .  S
O3077     Ni3085   1.914       .  S
O3077      C3087   1.280       .  A
O3078     Ni3085   1.914       .  S
O3078      C3088   1.280       .  A
O3079     Ni3085   1.896       .  S
O3079      C3089   1.277       .  A
O3080     Ni3085   1.901       .  S
O3080      C3090   1.278       .  A
O3081     Ni3086   1.913       .  S
O3081      C3090   1.280       .  A
O3082     Ni3086   1.906       .  S
O3082      C3089   1.280       .  A
O3083     Ni3086   1.919       .  S
O3083      C3088   1.281       .  A
O3084     Ni3086   1.926       .  S
O3084      C3087   1.282       .  A
Ni3085    Ni3086   2.394       .  S
C3087      C3240   1.479       .  S
C3088      C3223   1.477       .  S
C3089      C3251   1.471       .  S
C3090      C3209   1.469       .  S
C3091      C3391   1.500       .  S
C3091      C3096   1.412       .  A
C3092      C3671   1.544       .  S
C3092      C3093   1.428       .  A
C3093      C3094   1.406       .  A
C3093      H3098   1.078       .  S
C3094      C3268   1.506       .  S
C3095      C3237   1.502       .  S
C3095      C3096   1.398       .  A
C3096      H3097   1.085       .  S
O3099     Ni3107   1.920       .  S
O3099      C3109   1.283       .  A
O3100      C3110   1.280       .  A
O3101      C3111   1.281       .  A
O3102     Ni3107   1.910       .  S
O3102      C3112   1.279       .  A
O3103     Ni3108   1.911   1_565  S
O3103      C3112   1.281       .  A
O3104      C3111   1.281       .  A
O3105      C3110   1.280       .  A
O3106     Ni3108   1.906   1_565  S
O3106      C3109   1.278       .  A
Ni3107    Ni3108   2.386   1_565  S
C3109      C3153   1.485       .  S
C3110      C3195   1.477       .  S
C3111      C3181   1.482       .  S
C3112      C3167   1.502       .  S
C3113      C3349   1.502       .  S
C3113      C3118   1.396       .  A
C3114      C3786   1.491       .  S
C3114      C3115   1.416       .  A
C3115      C3116   1.405       .  A
C3115      H3120   1.084       .  S
C3116      C3282   1.514       .  S
C3117      C3254   1.475       .  S
C3117      C3118   1.399       .  A
C3118      H3119   1.085       .  S
C3121      C3713   1.504       .  S
C3121      C3122   1.425       .  A
C3121      C3126   1.404       .  A
C3122      C3363   1.501       .  S
C3122      C3123   1.419       .  A
C3123      C3124   1.407       .  A
C3123      H3128   1.084       .  S
C3124      C3293   1.508       .  S
C3124      C3125   1.412       .  A
C3125      C3184   1.485       .  S
C3125      C3126   1.397       .  A
C3126      H3127   1.085       .  S
C3129      C3324   1.502       .  S
C3129      C3130   1.421       .  A
C3129      C3134   1.407       .  A
C3130      C3758   1.499       .  S
C3130      C3131   1.408       .  A
C3131      C3132   1.406       .  A
C3131      H3136   1.084       .  S
C3132      C3198   1.506       .  S
C3132      C3133   1.424       .  A
C3133      C3307   1.507       .  S
C3133      C3134   1.406       .  A
C3134      H3135   1.084       .  S
C3137      C3702   1.492       .  S
C3137      C3142   1.403       .  A
C3138      C3377   1.495       .  S
C3138      C3139   1.409       .  A
C3139      C3140   1.398       .  A
C3139      H3144   1.085       .  S
C3140      C3156   1.490       .  S
C3141      C3212   1.481       .  S
C3141      C3142   1.390       .  A
C3142      H3143   1.085       .  S
C3145      C3800   1.481       .  S
C3145      C3150   1.395       .  A
C3146      C3338   1.488       .  S
C3146      C3147   1.398       .  A
C3147      C3148   1.404       .  A
C3147      H3152   1.084       .  S
C3148      C3170   1.488       .  S
C3149      C3226   1.497       .  S
C3149      C3150   1.397       .  A
C3150      H3151   1.085       .  S
C3153      C3154   1.414       .  A
C3153      C3158   1.411       .  A
C3154      C3155   1.413       .  A
C3154      C3159   1.451       .  S
C3155      C3156   1.413       .  A
C3155      C3162   1.447       .  S
C3156      C3157   1.407       .  A
C3157      C3158   1.401       .  A
C3157      C3160   1.448       .  S
C3158      C3161   1.449       .  S
C3159      N3166   1.157       .  T
C3160      N3165   1.157       .  T
C3162      N3164   1.156       .  T
C3167      C3168   1.424       .  A
C3167      C3172   1.424       .  A
C3168      C3169   1.406       .  A
C3168      C3173   1.448       .  S
C3169      C3170   1.404       .  A
C3170      C3171   1.411       .  A
C3171      C3172   1.411       .  A
C3171      C3174   1.453       .  S
C3172      C3175   1.452       .  S
C3174      N3179   1.157       .  T
C3175      N3177   1.158       .  T
C3176      N3178   1.157   1_455  T
C3181      C3182   1.409       .  A
C3181      C3186   1.413       .  A
C3182      C3183   1.406       .  A
C3182      C3187   1.444       .  S
C3183      C3184   1.409       .  A
C3183      C3190   1.452       .  S
C3184      C3185   1.411       .  A
C3185      C3186   1.411       .  A
C3185      C3188   1.449       .  S
C3186      C3189   1.450       .  S
C3188      N3193   1.157       .  T
C3189      N3191   1.157       .  T
C3190      N3192   1.157       .  T
C3195      C3196   1.406       .  A
C3195      C3200   1.408       .  A
C3196      C3197   1.410       .  A
C3196      C3201   1.448       .  S
C3197      C3198   1.416       .  A
C3197      C3204   1.448       .  S
C3198      C3199   1.421       .  A
C3199      C3200   1.411       .  A
C3199      C3202   1.448       .  S
C3200      C3203   1.453       .  S
C3201      N3208   1.156       .  T
C3202      N3207   1.157       .  T
C3203      N3205   1.157       .  T
C3204      N3206   1.157       .  T
C3209      C3210   1.412       .  A
C3209      C3214   1.409       .  A
C3210      C3211   1.408       .  A
C3210      C3215   1.450       .  S
C3211      C3212   1.410       .  A
C3211      C3218   1.450       .  S
C3212      C3213   1.409       .  A
C3213      C3214   1.401       .  A
C3214      C3217   1.453       .  S
C3215      N3222   1.157       .  T
C3216      N3221   1.156       .  T
C3218      N3220   1.157       .  T
C3223      C3224   1.411       .  A
C3223      C3228   1.410       .  A
C3224      C3225   1.408       .  A
C3224      C3229   1.451       .  S
C3225      C3226   1.416       .  A
C3225      C3232   1.452       .  S
C3226      C3227   1.414       .  A
C3227      C3228   1.409       .  A
C3228      C3231   1.451       .  S
C3229      N3236   1.157       .  T
C3230      N3235   1.157       .  T
C3232      N3234   1.157       .  T
C3237      C3238   1.418       .  A
C3237      C3242   1.416       .  A
C3238      C3239   1.408       .  A
C3238      C3243   1.445       .  S
C3239      C3240   1.403       .  A
C3239      C3246   1.451       .  S
C3240      C3241   1.409       .  A
C3241      C3242   1.414       .  A
C3241      C3244   1.448       .  S
C3242      C3245   1.448       .  S
C3243      N3250   1.155       .  T
C3244      N3249   1.157       .  T
C3245      N3247   1.157       .  T
C3246      N3248   1.157       .  T
C3251      C3252   1.415       .  A
C3251      C3256   1.412       .  A
C3252      C3253   1.402       .  A
C3252      C3257   1.453       .  S
C3253      C3254   1.408       .  A
C3253      C3260   1.451       .  S
C3254      C3255   1.411       .  A
C3255      C3256   1.403       .  A
C3255      C3258   1.452       .  S
C3256      C3259   1.452       .  S
C3257      N3264   1.157       .  T
C3258      N3263   1.157       .  T
C3259      N3261   1.157       .  T
C3260      N3262   1.157       .  T
C3265      C3266   1.419       .  A
C3265      C3270   1.424       .  A
C3266      C3267   1.419       .  A
C3266      C3271   1.450       .  S
C3267      C3268   1.415       .  A
C3267      C3274   1.450       .  S
C3268      C3269   1.410       .  A
C3269      C3270   1.413       .  A
C3271      N3278   1.157       .  T
C3272      N3277   1.157       .  T
C3273      N3275   1.157       .  T
C3274      N3276   1.157       .  T
C3279      C3280   1.414       .  A
C3279      C3284   1.411       .  A
C3280      C3281   1.419       .  A
C3280      C3285   1.449       .  S
C3281      C3282   1.416       .  A
C3281      C3288   1.450       .  S
C3282      C3283   1.416       .  A
C3283      C3284   1.418       .  A
C3285      N3292   1.157       .  T
C3286      N3291   1.157   1_545  T
C3287      N3289   1.157       .  T
C3288      N3290   1.157       .  T
C3293      C3294   1.415       .  A
C3293      C3298   1.414       .  A
C3294      C3295   1.418       .  A
C3294      C3299   1.449       .  S
C3295      C3296   1.413       .  A
C3295      C3302   1.448       .  S
C3296      C3297   1.413       .  A
C3297      C3298   1.416       .  A
C3297      C3300   1.448       .  S
C3298      C3301   1.449       .  S
C3299      N3306   1.157       .  T
C3300      N3305   1.156       .  T
C3301      N3303   1.157       .  T
C3302      N3304   1.157       .  T
C3307      C3308   1.418       .  A
C3307      C3312   1.412       .  A
C3308      C3309   1.417       .  A
C3308      C3313   1.450       .  S
C3309      C3310   1.416       .  A
C3309      C3316   1.450       .  S
C3310      C3311   1.421       .  A
C3311      C3312   1.412       .  A
C3311      C3314   1.451       .  S
C3312      C3315   1.452       .  S
C3313      N3320   1.157       .  T
C3315      N3317   1.157       .  T
C3316      N3318   1.157       .  T
C3321      C3322   1.416       .  A
C3321      C3326   1.420       .  A
C3322      C3323   1.418       .  A
C3322      C3327   1.451       .  S
C3323      C3324   1.418       .  A
C3323      C3330   1.451       .  S
C3324      C3325   1.410       .  A
C3325      C3326   1.417       .  A
C3325      C3328   1.449       .  S
C3326      C3329   1.449       .  S
C3327      N3334   1.157       .  T
C3328      N3333   1.157       .  T
C3329      N3331   1.156   1_554  T
C3330      N3332   1.157       .  T
C3335      C3336   1.417       .  A
C3335      C3340   1.423       .  A
C3336      C3337   1.412       .  A
C3336      C3341   1.449       .  S
C3337      C3338   1.409       .  A
C3337      C3344   1.449       .  S
C3338      C3339   1.408       .  A
C3339      C3340   1.408       .  A
C3339      C3342   1.453       .  S
C3340      C3343   1.453       .  S
C3341      N3348   1.157   1_554  T
C3342      N3347   1.157       .  T
C3343      N3345   1.158       .  T
C3344      N3346   1.157       .  T
C3349      C3350   1.416       .  A
C3349      C3354   1.413       .  A
C3350      C3351   1.420       .  A
C3350      C3355   1.449       .  S
C3351      C3352   1.416       .  A
C3351      C3358   1.450       .  S
C3352      C3353   1.415       .  A
C3353      C3354   1.413       .  A
C3353      C3356   1.450       .  S
C3354      C3357   1.449       .  S
C3355      N3362   1.157       .  T
C3356      N3361   1.157   1_554  T
C3357      N3359   1.157       .  T
C3358      N3360   1.157       .  T
C3363      C3364   1.418       .  A
C3363      C3368   1.419       .  A
C3364      C3365   1.415       .  A
C3364      C3369   1.446       .  S
C3365      C3366   1.407       .  A
C3365      C3372   1.451       .  S
C3366      C3367   1.410       .  A
C3367      C3368   1.410       .  A
C3367      C3370   1.452       .  S
C3368      C3371   1.453       .  S
C3369      N3376   1.157       .  T
C3370      N3375   1.157       .  T
C3371      N3373   1.157       .  T
C3372      N3374   1.157       .  T
C3377      C3378   1.415       .  A
C3377      C3382   1.417       .  A
C3378      C3379   1.416       .  A
C3379      C3380   1.409       .  A
C3379      C3386   1.450       .  S
C3380      C3381   1.410       .  A
C3381      C3382   1.409       .  A
C3381      C3384   1.453       .  S
C3382      C3385   1.450       .  S
C3383      N3390   1.157   1_455  T
C3384      N3389   1.157       .  T
C3385      N3387   1.157       .  T
C3386      N3388   1.157       .  T
C3391      C3392   1.418       .  A
C3391      C3396   1.413       .  A
C3392      C3393   1.421       .  A
C3392      C3397   1.449       .  S
C3393      C3394   1.418       .  A
C3393      C3400   1.449       .  S
C3394      C3395   1.412       .  A
C3395      C3396   1.405       .  A
C3395      C3398   1.453       .  S
C3396      C3399   1.447       .  S
C3398      N3403   1.157       .  T
C3399      N3401   1.156       .  T
C3400      N3402   1.157       .  T
C3405      C3406   1.418       .  A
C3405      C3410   1.421       .  A
C3406      C3407   1.422       .  A
C3406      C3411   1.448       .  S
C3407      C3408   1.416       .  A
C3407      C3414   1.449       .  S
C3408      C3409   1.411       .  A
C3409      C3410   1.411       .  A
C3409      C3412   1.450       .  S
C3410      C3413   1.453       .  S
C3411      N3418   1.157       .  T
C3412      N3417   1.157       .  T
C3413      N3415   1.157       .  T
C3414      N3416   1.157       .  T
C3419      C3420   1.417       .  A
C3419      C3424   1.418       .  A
C3420      C3421   1.418       .  A
C3420      C3425   1.447       .  S
C3421      C3422   1.410       .  A
C3421      C3428   1.449       .  S
C3422      C3423   1.411       .  A
C3423      C3424   1.412       .  A
C3423      C3426   1.452       .  S
C3424      C3427   1.451       .  S
C3425      N3432   1.157       .  T
C3426      N3431   1.157       .  T
C3427      N3429   1.157       .  T
C3428      N3430   1.157   1_556  T
C3433      C3434   1.410       .  A
C3433      C3438   1.415       .  A
C3434      C3435   1.409       .  A
C3434      C3439   1.450       .  S
C3435      C3436   1.414       .  A
C3435      C3442   1.452       .  S
C3436      C3437   1.411       .  A
C3437      C3438   1.414       .  A
C3437      C3440   1.451       .  S
C3438      C3441   1.450       .  S
C3439      N3446   1.157       .  T
C3440      N3445   1.157       .  T
C3441      N3443   1.157       .  T
C3442      N3444   1.157       .  T
C3447      C3448   1.408       .  A
C3447      C3452   1.406       .  A
C3448      C3449   1.409       .  A
C3448      C3453   1.452       .  S
C3449      C3450   1.417       .  A
C3449      C3456   1.451       .  S
C3450      C3451   1.415       .  A
C3451      C3452   1.412       .  A
C3451      C3454   1.445       .  S
C3452      C3455   1.451       .  S
C3453      N3460   1.157       .  T
C3454      N3459   1.157       .  T
C3455      N3457   1.157   1_556  T
C3456      N3458   1.157       .  T
C3461      C3462   1.411       .  A
C3461      C3466   1.416       .  A
C3462      C3463   1.405       .  A
C3462      C3467   1.451       .  S
C3463      C3464   1.415       .  A
C3463      C3470   1.454       .  S
C3464      C3465   1.411       .  A
C3465      C3466   1.417       .  A
C3465      C3468   1.450       .  S
C3466      C3469   1.449       .  S
C3468      N3473   1.157       .  T
C3469      N3471   1.157   1_565  T
C3470      N3472   1.157       .  T
C3475      C3476   1.419       .  A
C3475      C3480   1.415       .  A
C3476      C3477   1.416       .  A
C3476      C3481   1.452       .  S
C3477      C3478   1.411       .  A
C3477      C3484   1.448       .  S
C3478      C3479   1.418       .  A
C3479      C3480   1.421       .  A
C3479      C3482   1.449       .  S
C3480      C3483   1.450       .  S
C3481      N3488   1.157       .  T
C3482      N3487   1.157       .  T
C3483      N3485   1.157       .  T
C3484      N3486   1.157       .  T
C3489      C3490   1.409       .  A
C3489      C3494   1.408       .  A
C3490      C3491   1.408       .  A
C3490      C3495   1.452       .  S
C3491      C3492   1.419       .  A
C3491      C3498   1.451       .  S
C3492      C3493   1.414       .  A
C3493      C3494   1.406       .  A
C3493      C3496   1.449       .  S
C3494      C3497   1.450       .  S
C3495      N3502   1.157   1_655  T
C3496      N3501   1.157       .  T
C3497      N3499   1.157       .  T
C3498      N3500   1.157       .  T
C3503      C3504   1.410       .  A
C3503      C3508   1.412       .  A
C3504      C3505   1.407       .  A
C3504      C3509   1.451       .  S
C3505      C3506   1.411       .  A
C3505      C3512   1.449       .  S
C3506      C3507   1.410       .  A
C3507      C3508   1.406       .  A
C3509      N3516   1.157       .  T
C3510      N3515   1.157       .  T
C3511      N3513   1.157       .  T
C3512      N3514   1.157       .  T
C3517      C3518   1.421       .  A
C3517      C3522   1.424       .  A
C3518      C3519   1.406       .  A
C3518      C3523   1.452       .  S
C3519      C3520   1.411       .  A
C3519      C3526   1.453       .  S
C3520      C3521   1.405       .  A
C3521      C3522   1.406       .  A
C3523      N3530   1.158       .  T
C3524      N3529   1.157       .  T
C3525      N3527   1.156       .  T
C3526      N3528   1.157       .  T
C3531      C3532   1.409       .  A
C3531      C3536   1.411       .  A
C3532      C3533   1.402       .  A
C3532      C3537   1.449       .  S
C3533      C3534   1.406       .  A
C3533      C3540   1.448       .  S
C3534      C3535   1.410       .  A
C3535      C3536   1.409       .  A
C3535      C3538   1.450       .  S
C3536      C3539   1.449       .  S
C3537      N3544   1.157       .  T
C3538      N3543   1.157       .  T
C3539      N3541   1.157       .  T
C3545      C3546   1.418       .  A
C3545      C3550   1.420       .  A
C3546      C3547   1.413       .  A
C3546      C3551   1.450       .  S
C3547      C3548   1.413       .  A
C3548      C3549   1.413       .  A
C3549      C3550   1.420       .  A
C3549      C3552   1.450       .  S
C3550      C3553   1.449       .  S
C3552      N3557   1.157       .  T
C3553      N3555   1.157       .  T
C3554      N3556   1.157       .  T
C3559      C3560   1.412       .  A
C3559      C3564   1.414       .  A
C3560      C3561   1.410       .  A
C3560      C3565   1.447       .  S
C3561      C3562   1.406       .  A
C3561      C3568   1.447       .  S
C3562      C3563   1.411       .  A
C3563      C3564   1.416       .  A
C3563      C3566   1.449       .  S
C3564      C3567   1.448       .  S
C3565      N3572   1.157       .  T
C3566      N3571   1.157       .  T
C3567      N3569   1.157       .  T
C3568      N3570   1.156       .  T
C3573      C3574   1.412       .  A
C3573      C3578   1.411       .  A
C3574      C3575   1.416       .  A
C3574      C3579   1.452       .  S
C3575      C3576   1.419       .  A
C3575      C3582   1.448       .  S
C3576      C3577   1.419       .  A
C3577      C3578   1.417       .  A
C3578      C3581   1.450       .  S
C3579      N3586   1.157       .  T
C3580      N3585   1.157       .  T
C3581      N3583   1.157       .  T
C3582      N3584   1.156       .  T
C3587      C3588   1.409       .  A
C3587      C3592   1.415       .  A
C3588      C3589   1.414       .  A
C3588      C3593   1.452       .  S
C3589      C3590   1.425       .  A
C3589      C3596   1.448       .  S
C3590      C3591   1.424       .  A
C3591      C3592   1.415       .  A
C3591      C3594   1.452       .  S
C3593      N3600   1.157       .  T
C3595      N3597   1.157       .  T
C3596      N3598   1.156       .  T
C3601      C3602   1.413       .  A
C3601      C3606   1.412       .  A
C3602      C3603   1.414       .  A
C3602      C3607   1.448       .  S
C3603      C3604   1.412       .  A
C3603      C3610   1.450       .  S
C3604      C3605   1.411       .  A
C3605      C3606   1.412       .  A
C3606      C3609   1.449       .  S
C3607      N3614   1.156       .  T
C3608      N3613   1.157       .  T
C3610      N3612   1.157       .  T
C3615      C3616   1.424       .  A
C3615      C3620   1.418       .  A
C3616      C3617   1.411       .  A
C3616      C3621   1.452       .  S
C3617      C3618   1.410       .  A
C3617      C3624   1.452       .  S
C3618      C3619   1.417       .  A
C3619      C3620   1.417       .  A
C3619      C3622   1.450       .  S
C3620      C3623   1.451       .  S
C3621      N3628   1.157       .  T
C3622      N3627   1.157       .  T
C3623      N3625   1.158       .  T
C3624      N3626   1.157       .  T
C3629      C3630   1.411       .  A
C3629      C3634   1.415       .  A
C3630      C3631   1.417       .  A
C3630      C3635   1.451       .  S
C3631      C3632   1.422       .  A
C3631      C3638   1.449       .  S
C3632      C3633   1.414       .  A
C3633      C3634   1.410       .  A
C3635      N3642   1.158       .  T
C3636      N3641   1.157       .  T
C3637      N3639   1.158       .  T
C3638      N3640   1.157       .  T
C3643      C3644   1.411       .  A
C3643      C3648   1.413       .  A
C3644      C3645   1.416       .  A
C3644      C3649   1.449       .  S
C3645      C3646   1.415       .  A
C3645      C3652   1.448       .  S
C3646      C3647   1.413       .  A
C3647      C3648   1.416       .  A
C3647      C3650   1.450       .  S
C3648      C3651   1.448       .  S
C3649      N3656   1.157       .  T
C3651      N3653   1.157       .  T
C3652      N3654   1.156       .  T
C3657      C3658   1.416       .  A
C3657      C3662   1.411       .  A
C3658      C3659   1.414       .  A
C3658      C3663   1.450       .  S
C3659      C3660   1.413       .  A
C3659      C3666   1.450       .  S
C3660      C3661   1.420       .  A
C3661      C3662   1.414       .  A
C3661      C3664   1.453       .  S
C3663      N3670   1.157       .  T
C3664      N3669   1.158       .  T
C3665      N3667   1.157       .  T
C3666      N3668   1.157       .  T
C3671      C3672   1.422       .  A
C3671      C3676   1.412       .  A
C3672      C3673   1.416       .  A
C3672      C3677   1.452       .  S
C3673      C3674   1.416       .  A
C3673      C3680   1.449       .  S
C3674      C3675   1.416       .  A
C3675      C3676   1.412       .  A
C3675      C3678   1.451       .  S
C3677      N3684   1.158       .  T
C3678      N3683   1.157       .  T
C3679      N3681   1.158       .  T
C3680      N3682   1.157       .  T
C3685      C3686   1.417       .  A
C3685      C3690   1.416       .  A
C3686      C3687   1.407       .  A
C3686      C3691   1.451       .  S
C3687      C3688   1.410       .  A
C3687      C3694   1.451       .  S
C3688      C3689   1.413       .  A
C3689      C3690   1.416       .  A
C3689      C3692   1.447       .  S
C3690      C3693   1.451       .  S
C3691      N3698   1.157       .  T
C3693      N3695   1.158       .  T
C3694      N3696   1.157       .  T
C3699      C3700   1.402       .  A
C3699      C3704   1.408       .  A
C3700      C3701   1.406       .  A
C3700      C3705   1.451       .  S
C3701      C3702   1.421       .  A
C3701      C3708   1.448       .  S
C3702      C3703   1.415       .  A
C3703      C3704   1.410       .  A
C3703      C3706   1.446       .  S
C3704      C3707   1.451       .  S
C3705      N3712   1.157       .  T
C3706      N3711   1.157       .  T
C3707      N3709   1.157       .  T
C3708      N3710   1.156       .  T
C3713      C3714   1.414       .  A
C3713      C3718   1.417       .  A
C3714      C3715   1.422       .  A
C3714      C3719   1.448       .  S
C3715      C3716   1.419       .  A
C3715      C3722   1.450       .  S
C3716      C3717   1.420       .  A
C3717      C3718   1.410       .  A
C3717      C3720   1.453       .  S
C3718      C3721   1.454       .  S
C3719      N3726   1.157       .  T
C3720      N3725   1.158       .  T
C3721      N3723   1.157       .  T
C3722      N3724   1.157       .  T
C3727      C3728   1.412       .  A
C3727      C3732   1.414       .  A
C3728      C3729   1.421       .  A
C3728      C3733   1.450       .  S
C3729      C3730   1.418       .  A
C3729      C3736   1.447       .  S
C3730      C3731   1.416       .  A
C3731      C3732   1.409       .  A
C3731      C3734   1.449       .  S
C3732      C3735   1.454       .  S
C3733      N3740   1.157       .  T
C3734      N3739   1.156       .  T
C3735      N3737   1.157       .  T
C3736      N3738   1.157       .  T
C3741      C3742   1.409       .  A
C3741      C3746   1.408       .  A
C3742      C3743   1.411       .  A
C3742      C3747   1.452       .  S
C3743      C3744   1.415       .  A
C3743      C3750   1.447       .  S
C3744      C3745   1.416       .  A
C3745      C3746   1.401       .  A
C3745      C3748   1.451       .  S
C3746      C3749   1.454       .  S
C3747      N3754   1.157       .  T
C3748      N3753   1.157       .  T
C3749      N3751   1.158       .  T
C3750      N3752   1.157       .  T
C3755      C3756   1.413       .  A
C3755      C3760   1.408       .  A
C3756      C3757   1.416       .  A
C3756      C3761   1.451       .  S
C3757      C3758   1.413       .  A
C3757      C3764   1.447       .  S
C3758      C3759   1.419       .  A
C3759      C3760   1.412       .  A
C3759      C3762   1.451       .  S
C3760      C3763   1.451       .  S
C3761      N3768   1.157       .  T
C3762      N3767   1.158       .  T
C3763      N3765   1.157       .  T
C3764      N3766   1.157       .  T
C3769      C3770   1.427       .  A
C3769      C3774   1.421       .  A
C3770      C3771   1.416       .  A
C3770      C3775   1.452       .  S
C3771      C3772   1.411       .  A
C3771      C3778   1.450       .  S
C3772      C3773   1.419       .  A
C3773      C3774   1.421       .  A
C3773      C3776   1.452       .  S
C3774      C3777   1.451       .  S
C3775      N3782   1.158   1_556  T
C3777      N3779   1.158       .  T
C3778      N3780   1.157   1_655  T
C3783      C3784   1.416       .  A
C3783      C3788   1.417       .  A
C3784      C3785   1.406       .  A
C3784      C3789   1.453       .  S
C3785      C3786   1.410       .  A
C3785      C3792   1.448       .  S
C3786      C3787   1.415       .  A
C3787      C3788   1.418       .  A
C3787      C3790   1.450       .  S
C3788      C3791   1.450       .  S
C3789      N3796   1.157   1_554  T
C3790      N3795   1.157       .  T
C3791      N3793   1.158       .  T
C3797      C3798   1.410       .  A
C3797      C3802   1.420       .  A
C3798      C3799   1.402       .  A
C3798      C3803   1.451       .  S
C3799      C3800   1.409       .  A
C3799      C3806   1.448       .  S
C3800      C3801   1.411       .  A
C3801      C3802   1.406       .  A
C3801      C3804   1.453       .  S
C3802      C3805   1.453       .  S
C3803      N3810   1.157   1_554  T
C3804      N3809   1.157       .  T
C3805      N3807   1.158       .  T
C3811      C3812   1.409       .  A
C3811      C3816   1.416       .  A
C3812      C3813   1.412       .  A
C3812      C3817   1.450       .  S
C3813      C3814   1.418       .  A
C3813      C3820   1.452       .  S
C3814      C3815   1.410       .  A
C3815      C3816   1.414       .  A
C3815      C3818   1.448       .  S
C3816      C3819   1.450       .  S
C3817      N3824   1.157       .  T
C3818      N3823   1.157       .  T
C3819      N3821   1.158       .  T
C3820      N3822   1.157       .  T
