geometry optimzed in LAMMPS
_audit_creation_date              2020-11-30 
_audit_creation_method            'lammps2cif' 
_symmetry_space_group_name_H-M    'P1' 
_symmetry_Int_Tables_number       1 
_symmetry_cell_setting            triclinic 
loop_ 
_symmetry_equiv_pos_as_xyz 
  x,y,z 
_cell_length_a                    45.68708128 
_cell_length_b                    45.81474217562921 
_cell_length_c                    32.99649451876637 
_cell_angle_alpha                 90.68872276916699 
_cell_angle_beta                  89.81946925056948 
_cell_angle_gamma                 107.10587124256219 
loop_ 
_atom_site_label 
_atom_site_type_symbol 
_atom_site_fract_x 
_atom_site_fract_y 
_atom_site_fract_z 
_atom_site_charge 
C1          C  0.48811197  0.49545014  0.70788602     0.46900
H2          H  0.48739921  0.49366514  0.67443464    -0.02100
C3          C  0.98743847  0.99816484  0.78745553     0.47000
H4          H  0.98607741  0.99820952  0.82088361    -0.02100
C5          C  0.01927353  0.49523845  0.72624661    -0.15800
C6          C  0.48217330  0.02573339  0.72500941    -0.15600
C7          C  0.46455597  0.46794789  0.72767168    -0.15900
C8          C  0.01942284  0.49519114  0.76824831    -0.15900
C9          C  0.48276483  0.02719664  0.76716717    -0.15500
C10         C  0.46432380  0.46949864  0.76933659    -0.15800
O11         O  0.36882471  0.12010033  0.06265029    -0.79500
O12         O  0.36598541  0.23297125  0.97011316    -0.64100
O13         O  0.34974931  0.17214948  0.05262420    -1.10700
C14         C  0.27901157  0.11431029  0.95717983     1.07400
O15         O  0.31632928  0.22686652  0.96187981    -0.77300
O16         O  0.27259568  0.18132308  0.00147291    -0.64900
Ni17       Ni  0.38282217  0.16215488  0.07801111     1.34900
C18         C  0.26749473  0.16448335  0.03266728     0.86200
O19         O  0.38974567  0.23194983  0.04448121    -0.77900
O20         O  0.39987038  0.20334953  0.09468112    -0.88200
C21         C  0.34431310  0.24209333  0.95612545     0.85700
O22         O  0.41078937  0.16773223  0.03385690    -0.66400
O23         O  0.27818823  0.14018303  0.94383488    -0.85700
C24         C  0.41059815  0.17576936  0.99733605     0.86600
C25         C  0.40318313  0.22873825  0.07735438     1.08100
H26         H  0.34088488  0.16552288  0.95914519     0.39900
O27         O  0.33030928  0.17238925  0.98098266    -1.08300
O28         O  0.28554557  0.14927225  0.04423086    -0.65000
Ni29       Ni  0.32212156  0.14091761  0.02081923     1.26300
O30         O  0.39125776  0.18881544  0.98509830    -0.65200
O31         O  0.29575799  0.11088825  0.98638442    -0.77500
C32         C  0.34265258  0.10156580  0.06889942     0.86000
O33         O  0.31863442  0.10932518  0.06096990    -0.64700
Ni34       Ni  0.29811175  0.18289470  0.95496629     1.27400
Ni35       Ni  0.35969351  0.20276266  0.01173101     1.26100
H36         H  0.33829508  0.17876692  0.07354944     0.40500
N37         N  0.35756719  0.34931867  0.85746979    -0.02000
C38         C  0.37679509  0.36048275  0.82566751     0.00600
C39         C  0.36057054  0.35280078  0.78970863    -0.22300
C40         C  0.33019933  0.34493080  0.79955661    -0.22500
C41         C  0.32923589  0.34485472  0.84131599     0.00500
H42         H  0.36959446  0.35965488  0.76000129     0.14200
H43         H  0.31145954  0.34326671  0.77881880     0.14300
O44         O  0.19791456  0.32643795  0.92860552    -0.79500
O45         O  0.10194122  0.33520460  0.05096960    -0.64100
O46         O  0.15272311  0.35072291  0.95721890    -1.10700
C47         C  0.21998164  0.41818747  0.04600787     1.07400
O48         O  0.10832993  0.38506657  0.05652212    -0.77300
O49         O  0.14708703  0.42200499  0.00285010    -0.64900
Ni50       Ni  0.15487650  0.31907440  0.92141497     1.34900
C51         C  0.16294208  0.42511409  0.97062419     0.86200
O52         O  0.09345254  0.31143784  0.97564443    -0.77900
O53         O  0.11133910  0.30761622  0.91326259    -0.88200
C54         C  0.09473781  0.35762472  0.06671485     0.85700
O55         O  0.15039484  0.28854323  0.96030507    -0.66400
O56         O  0.19568862  0.42524669  0.05535753    -0.85700
C57         C  0.14768578  0.28688522  0.99834603     0.86600
C58         C  0.09089665  0.29888342  0.94059138     1.08100
H59         H  0.16666692  0.35856285  0.05208911     0.39900
O60         O  0.15975299  0.36895058  0.03037234    -1.08300
O61         O  0.18252222  0.41069750  0.96520543    -0.65000
Ni62       Ni  0.18808942  0.37392851  0.98699548     1.26300
O63         O  0.14182892  0.30785192  0.01984213    -0.65200
O64         O  0.22083440  0.39747069  0.02014988    -0.77500
C65         C  0.21924229  0.35120639  0.92633291     0.86000
O66         O  0.21658355  0.37543873  0.94319254    -0.64700
Ni67       Ni  0.15225511  0.40412754  0.05342535     1.27400
Ni68       Ni  0.12645145  0.34098891  0.00315202     1.26100
H69         H  0.14524783  0.36450250  0.94090309     0.40500
N70         N  0.14749553  0.15664288  0.09852650    -0.02000
C71         C  0.12350715  0.13395624  0.11381951     0.00600
C72         C  0.09570688  0.13637579  0.10023438    -0.22300
C73         C  0.10188738  0.16150805  0.07687341    -0.22500
C74         C  0.13325532  0.17328964  0.07592014     0.00500
H75         H  0.07313005  0.12273153  0.10957623     0.14200
H76         H  0.08532071  0.17085751  0.06285154     0.14300
N77         N  0.15681937  0.02115449  0.86359559    -0.02000
C78         C  0.13894864  0.02421426  0.83210030     0.00600
C79         C  0.15353040  0.04927393  0.80911022    -0.22300
C80         C  0.18144452  0.06227582  0.82665903    -0.22500
C81         C  0.18310704  0.04463560  0.85975967     0.00500
H82         H  0.14393552  0.05830581  0.78395461     0.14200
H83         H  0.19824677  0.08311786  0.81728464     0.14300
N84         N  0.00023192  0.33928881  0.18792429    -0.02000
C85         C  0.00191325  0.35503622  0.22346429     0.00600
C86         C  0.48093641  0.33771739  0.25039740    -0.22300
C87         C  0.46566647  0.31095389  0.23075116    -0.22500
C88         C  0.47743342  0.31281236  0.19201386     0.00500
H89         H  0.47458229  0.34544340  0.27931938     0.14200
H90         H  0.44584102  0.29358377  0.24186046     0.14300
N91         N  0.00436862  0.15436951  0.89135149    -0.02000
C92         C  0.01084958  0.12809418  0.88027035     0.00600
C93         C  0.04183862  0.13169080  0.88598212    -0.22300
C94         C  0.05520145  0.16126218  0.89802404    -0.22500
C95         C  0.03199759  0.17471257  0.90053192     0.00500
H96         H  0.05406408  0.11568543  0.87697091     0.14200
H97         H  0.07935357  0.17208840  0.90319927     0.14300
N98         N  0.35378164  0.99005486  0.13907377    -0.02000
C99         C  0.37589796  0.98685470  0.16490715     0.00600
C100        C  0.36812625  0.45900814  0.17968088    -0.22300
C101        C  0.34148743  0.44307416  0.16105040    -0.22500
C102        C  0.33327560  0.46325021  0.13592003     0.00500
H103        H  0.38163717  0.44936867  0.19941893     0.14200
H104        H  0.32952977  0.41911909  0.16510910     0.14300
O105        O  0.30846527  0.22454517  0.54899073    -0.79500
O106        O  0.32362623  0.11194641  0.44411319    -0.64100
O107        O  0.32744055  0.17259802  0.52618174    -1.10700
C108        C  0.39771783  0.23610556  0.43371149     1.07400
O109        O  0.37404693  0.12621380  0.43881857    -0.77300
O110        O  0.41164571  0.17454566  0.47430713    -0.64900
Ni111      Ni  0.29137579  0.18003465  0.54714094     1.34900
C112        C  0.40948641  0.18224235  0.51094369     0.86200
O113        O  0.29877059  0.11016840  0.51781095    -0.77900
O114        O  0.27152870  0.13675677  0.55068770    -0.88200
C115        C  0.34823295  0.10676247  0.43262810     0.85700
O116        O  0.27164816  0.18090788  0.49594616    -0.66400
O117        O  0.39923334  0.21195728  0.41535107    -0.85700
C118        C  0.26887197  0.16276682  0.46564576     0.86600
C119        C  0.27689619  0.11174881  0.54080465     1.08100
H120        H  0.33727037  0.18018551  0.43387425     0.39900
O121        O  0.34942608  0.17474760  0.45469151    -1.08300
O122        O  0.38864077  0.19382639  0.52243985    -0.65000
Ni123      Ni  0.35522900  0.20460790  0.49700312     1.26300
O124        O  0.28693015  0.14646607  0.45940231    -0.65200
O125        O  0.38273011  0.23597810  0.46635053    -0.77500
C126        C  0.33604430  0.24119981  0.55489901     0.86000
O127        O  0.35861146  0.23377639  0.54011796    -0.64700
Ni128      Ni  0.38505484  0.16929756  0.42852951     1.27400
Ni129      Ni  0.32380340  0.14186311  0.48523136     1.26100
H130        H  0.33780191  0.16712812  0.54898650     0.40500
N131        N  0.35004618  0.35408805  0.64297952    -0.02000
C132        C  0.36545136  0.37038721  0.67510924     0.00600
C133        C  0.34563576  0.38105938  0.69905749    -0.22300
C134        C  0.31818811  0.37370192  0.67979321    -0.22500
C135        C  0.32176313  0.35772701  0.64556831     0.00500
H136        H  0.35207988  0.39750985  0.72366801     0.14200
H137        H  0.29852009  0.38103114  0.68822396     0.14300
O138        O  0.10377338  0.38543201  0.45371175    -0.79500
O139        O  0.22197571  0.36716444  0.52735147    -0.64100
O140        O  0.15506779  0.36682017  0.46060773    -1.10700
C141        C  0.10202503  0.29067138  0.55780855     1.07400
O142        O  0.20492500  0.31716395  0.52396548    -0.77300
O143        O  0.15067519  0.27936913  0.50860646    -0.64900
Ni144      Ni  0.14714856  0.40356359  0.44682865     1.34900
C145        C  0.14575624  0.28373116  0.47188089     0.86200
O146        O  0.21793895  0.39512897  0.45821387    -0.77900
O147        O  0.19018913  0.42487421  0.43670487    -0.88200
C148        C  0.22523775  0.34120959  0.53420259     0.85700
O149        O  0.14903163  0.41871265  0.50078618    -0.66400
O150        O  0.12765970  0.29802816  0.57615699    -0.85700
C151        C  0.16808254  0.41920980  0.52875000     0.86600
C152        C  0.21544624  0.41815836  0.43882428     1.08100
H153        H  0.15478332  0.35474703  0.55105052     0.39900
O154        O  0.15885093  0.34292409  0.52841606    -1.08300
O155        O  0.13792163  0.30660996  0.46004897    -0.65000
Ni156      Ni  0.12584264  0.33647026  0.49224329     1.26300
O157        O  0.18731941  0.40397428  0.52701305    -0.65200
O158        O  0.09788241  0.30357920  0.52455744    -0.77500
C159        C  0.08584632  0.35845554  0.44813634     0.86000
O160        O  0.09365675  0.33451979  0.45518143    -0.64700
Ni161      Ni  0.16653798  0.30825371  0.55052511     1.27400
Ni162      Ni  0.18913596  0.36908997  0.49406752     1.26100
H163        H  0.15847783  0.35774026  0.43510742     0.40500
N164        N  0.15087343  0.01027633  0.61654792    -0.02000
C165        C  0.12278548  0.01541232  0.61958091     0.00600
C166        C  0.12110786  0.03925092  0.59546030    -0.22300
C167        C  0.14872451  0.05002472  0.57709436    -0.22500
C168        C  0.16647380  0.03240548  0.59035872     0.00500
H169        H  0.10248208  0.04935539  0.59418434     0.14200
H170        H  0.15590893  0.06998996  0.55816479     0.14300
N171        N  0.49567039  0.16339762  0.63024416    -0.02000
C172        C  0.99146049  0.14428818  0.66299816     0.00600
C173        C  0.00791494  0.15984120  0.69562271    -0.22300
C174        C  0.02311574  0.18877726  0.68315620    -0.22500
C175        C  0.01548233  0.19048932  0.64300744     0.00500
H176        H  0.01032264  0.15020078  0.72458581     0.14200
H177        H  0.03997460  0.20588855  0.70047176     0.14300
N178        N  0.98060155  0.37361355  0.37253242    -0.02000
C179        C  0.98479436  0.39990737  0.35159481     0.00600
C180        C  0.45660004  0.40195444  0.33913771    -0.22300
C181        C  0.43467297  0.37629059  0.35295757    -0.22500
C182        C  0.45007182  0.35912473  0.37344760     0.00500
H183        H  0.45250703  0.41930798  0.31990674     0.14200
H184        H  0.41031734  0.37024203  0.34714187     0.14300
N185        N  0.16477523  0.16388110  0.36677911    -0.02000
C186        C  0.15189880  0.14961668  0.33168907     0.00600
C187        C  0.14823077  0.17089690  0.30426211    -0.22300
C188        C  0.15578686  0.19844966  0.32380910    -0.22500
C189        C  0.16491060  0.19342186  0.36216317     0.00500
H190        H  0.13567171  0.16590045  0.27606994     0.14200
H191        H  0.15144413  0.21900859  0.31302301     0.14300
N192        N  0.34809552  0.99748121  0.34375144    -0.02000
C193        C  0.36824647  0.99258677  0.31551515     0.00600
C194        C  0.35573482  0.46774281  0.29402274    -0.22300
C195        C  0.32716774  0.45480882  0.31010598    -0.22500
C196        C  0.32336696  0.47406602  0.34080552     0.00500
H197        H  0.36678492  0.45730197  0.27144504     0.14200
H198        H  0.31143238  0.43290827  0.30167245     0.14300
C199        C  0.02751567  0.02825243  0.20706565     0.46900
H200        H  0.02859870  0.02982657  0.17383382    -0.02100
C201        C  0.02626489  0.02544134  0.28553634     0.47000
H202        H  0.02577313  0.02458771  0.31901718    -0.02100
C203        C  0.05400626  0.05311371  0.22698337    -0.15800
C204        C  0.49705889  0.03113919  0.22424988    -0.15600
C205        C  0.03138832  0.50086498  0.22615069    -0.15900
C206        C  0.05356999  0.05171669  0.26897808    -0.15900
C207        C  0.49585877  0.02964784  0.26680725    -0.15500
C208        C  0.03123844  0.49833992  0.26604347    -0.15800
C209        C  0.40255732  0.00677547  0.31393099    -0.03900
C210        C  0.41693992  0.03681361  0.30072822    -0.01000
C211        C  0.44889052  0.04619987  0.29150808     0.04000
C212        C  0.46603884  0.02494444  0.29143635    -0.03900
C213        C  0.45381743  0.50060131  0.31577468    -0.01000
C214        C  0.42216074  0.49080789  0.32474958     0.04000
C215        C  0.39936510  0.05823851  0.29719978     0.38600
C216        C  0.47293845  0.48633805  0.33735686     0.38600
C217        C  0.40924772  0.46246241  0.34648591     0.37000
C218        C  0.46504811  0.07840248  0.29003171     0.37000
N219        N  0.39894863  0.44016804  0.36428629    -0.37800
N220        N  0.47765036  0.10432742  0.29038677    -0.37800
N221        N  0.48609326  0.47531795  0.35922936    -0.37200
N222        N  0.38574719  0.07580215  0.29454002    -0.37200
C223        C  0.07895695  0.07118274  0.29579401    -0.03900
C224        C  0.07272458  0.09178202  0.32419725    -0.01000
C225        C  0.09661230  0.11726833  0.33793261     0.04000
C226        C  0.12776209  0.11931028  0.32975338    -0.03900
C227        C  0.13408788  0.09508899  0.30856021    -0.01000
C228        C  0.10996880  0.07176550  0.29042104     0.04000
C229        C  0.04164368  0.08812861  0.33752856     0.38600
C230        C  0.16572103  0.09558688  0.30300272     0.38600
C231        C  0.11737009  0.04810546  0.26707406     0.37000
C232        C  0.08828871  0.14332021  0.35404207     0.37000
N233        N  0.12439041  0.02943756  0.24914916    -0.37800
N234        N  0.08057816  0.16397059  0.36513159    -0.37800
N235        N  0.19107592  0.09622020  0.29906376    -0.37200
N236        N  0.01726366  0.08524859  0.34991425    -0.37200
C237        C  0.03297067  0.46779517  0.28389354    -0.03900
C238        C  0.02391423  0.43642562  0.26046241    -0.01000
C239        C  0.02215439  0.41383780  0.29428119     0.04000
C240        C  0.01431804  0.41921707  0.33406295    -0.03900
C241        C  0.03213083  0.44665043  0.35084903    -0.01000
C242        C  0.04434046  0.47048866  0.32418850     0.04000
C243        C  0.01116143  0.42488939  0.17952212     0.38600
C244        C  0.03820340  0.45147941  0.39369366     0.38600
C245        C  0.06667225  0.49806121  0.33896289     0.37000
C246        C  0.04362755  0.39589002  0.29660313     0.37000
N247        N  0.08466305  0.51936425  0.35216972    -0.37800
N248        N  0.06071778  0.38174007  0.29974452    -0.37800
N249        N  0.54523683  0.45791835  0.42704117    -0.37200
N250        N  0.00588026  0.42068229  0.14518832    -0.37200
C251        C  0.07776780  0.26393417  0.57508414    -0.03900
C252        C  0.04720751  0.26419690  0.58122967    -0.01000
C253        C  0.02617191  0.24003090  0.60252308     0.04000
C254        C  0.03504031  0.21451498  0.61575062    -0.03900
C255        C  0.06492667  0.21338204  0.60704768    -0.01000
C256        C  0.08623937  0.23796120  0.58783742     0.04000
C257        C  0.03788087  0.29002979  0.56743377     0.38600
C258        C  0.07427617  0.18703847  0.61911958     0.38600
C259        C  0.11714698  0.23608047  0.58149226     0.37000
C260        C  0.99609851  0.24245147  0.61248151     0.37000
N261        N  0.14165428  0.23416867  0.57697264    -0.37800
N262        N  0.47232605  0.24519107  0.62027440    -0.37800
N263        N  0.08198410  0.16624048  0.62877780    -0.37200
N264        N  0.03059343  0.31067779  0.55611728    -0.37200
C265        C  0.15028537  0.26100902  0.44268055    -0.03900
C266        C  0.17460023  0.26918979  0.41462506    -0.01000
C267        C  0.18207771  0.24635622  0.39139451     0.04000
C268        C  0.16498154  0.21533419  0.39569483    -0.03900
C269        C  0.14214243  0.20726687  0.42598837    -0.01000
C270        C  0.13413390  0.23008780  0.44824043     0.04000
C271        C  0.19198196  0.30104150  0.40979160     0.38600
C272        C  0.12576680  0.17574965  0.43418511     0.38600
C273        C  0.10788043  0.22179496  0.47525016     0.37000
C274        C  0.20789999  0.25472986  0.36380920     0.37000
N275        N  0.08653823  0.21489790  0.49597551    -0.37800
N276        N  0.22883954  0.26178356  0.34237418    -0.37800
N277        N  0.11153018  0.15124096  0.44256789    -0.37200
N278        N  0.20572075  0.32644673  0.40575369    -0.37200
C279        C  0.16658745  0.43798171  0.56506770    -0.03900
C280        C  0.13893647  0.43211924  0.58696776    -0.01000
C281        C  0.13492868  0.45402650  0.61523279     0.04000
C282        C  0.15714074  0.48285147  0.61809613    -0.03900
C283        C  0.18724771  0.48245166  0.60844412    -0.01000
C284        C  0.19183519  0.46199625  0.57851969     0.04000
C285        C  0.11570787  0.40291336  0.58211187     0.38600
C286        C  0.21403679  0.99673958  0.64163835     0.38600
C287        C  0.22194095  0.46664030  0.56108716     0.37000
C288        C  0.11302031  0.44429855  0.64749996     0.37000
N289        N  0.24615587  0.47107366  0.54733440    -0.37800
N290        N  0.09595376  0.43544612  0.67370007    -0.37800
N291        N  0.23476560  0.00842624  0.66218318    -0.37200
N292        N  0.09761353  0.37932467  0.57824436    -0.37200
C293        C  0.29600530  0.46577638  0.36856616    -0.03900
C294        C  0.29901864  0.45782356  0.40935021    -0.01000
C295        C  0.27275880  0.44410087  0.43314501     0.04000
C296        C  0.24297515  0.43734445  0.41629966    -0.03900
C297        C  0.23993718  0.44641101  0.37602237    -0.01000
C298        C  0.26616368  0.46003048  0.35227840     0.04000
C299        C  0.32899404  0.46021028  0.42580819     0.38600
C300        C  0.20982286  0.43972047  0.35762168     0.38600
C301        C  0.26066413  0.96481223  0.31122863     0.37000
C302        C  0.27664283  0.43635538  0.47491112     0.37000
N303        N  0.25636901  0.96844621  0.27738163    -0.37800
N304        N  0.28000604  0.43018628  0.50813865    -0.37800
N305        N  0.18580972  0.43437317  0.34297324    -0.37200
N306        N  0.35239045  0.46097915  0.43981055    -0.37200
C307        C  0.00367136  0.36538124  0.39518642    -0.03900
C308        C  0.01437068  0.38108700  0.43155679    -0.01000
C309        C  0.03943121  0.37606075  0.45147669     0.04000
C310        C  0.05461427  0.35616881  0.43424764    -0.03900
C311        C  0.04162932  0.33774482  0.40056849    -0.01000
C312        C  0.01545011  0.34175812  0.38181160     0.04000
C313        C  0.99928092  0.40221520  0.44854978     0.38600
C314        C  0.05601096  0.31595564  0.38388061     0.38600
C315        C  0.00032232  0.32102815  0.34986204     0.37000
C316        C  0.04972135  0.39130898  0.48975230     0.37000
N317        N  0.98824093  0.30314491  0.32560974    -0.37800
N318        N  0.05816983  0.40307851  0.52046154    -0.37800
N319        N  0.06754526  0.29861224  0.37054262    -0.37200
N320        N  0.98737048  0.41919165  0.46215520    -0.37200
C321        C  0.25035497  0.33886760  0.55905058    -0.03900
C322        C  0.24406754  0.32714504  0.59839168    -0.01000
C323        C  0.26805015  0.33117395  0.62600684     0.04000
C324        C  0.29804705  0.34773738  0.61439174    -0.03900
C325        C  0.30430893  0.35776808  0.57394394    -0.01000
C326        C  0.28039638  0.35213839  0.54589029     0.04000
C327        C  0.21275088  0.31305515  0.61159332     0.38600
C328        C  0.33405839  0.37702787  0.56149159     0.38600
C329        C  0.28641384  0.36064234  0.50368012     0.37000
C330        C  0.26124226  0.31989290  0.66696213     0.37000
N331        N  0.29119548  0.36707448  0.46997705    -0.37800
N332        N  0.25506938  0.31096461  0.69948636    -0.37800
N333        N  0.35683037  0.39303654  0.54927657    -0.37200
N334        N  0.18796102  0.30192280  0.62269280    -0.37200
C335        C  0.43175863  0.17651701  0.54175504    -0.03900
C336        C  0.45915371  0.16980568  0.52949788    -0.01000
C337        C  0.47936921  0.16380318  0.55860971     0.04000
C338        C  0.47259744  0.16360389  0.60028316    -0.03900
C339        C  0.44609169  0.17116704  0.61269156    -0.01000
C340        C  0.42563596  0.17701171  0.58407045     0.04000
C341        C  0.46783031  0.17016342  0.48708675     0.38600
C342        C  0.44210072  0.17741110  0.65522844     0.38600
C343        C  0.39882000  0.18445374  0.59935943     0.35800
C344        C  0.50853648  0.16042929  0.54563235     0.37000
N345        N  0.37775537  0.19060299  0.61222853    -0.37800
N346        N  0.53187730  0.15856497  0.53412111    -0.37800
N347        N  0.43924282  0.18380028  0.68872984    -0.37200
N348        N  0.47513588  0.17027305  0.45344749    -0.37200
C349        C  0.34750122  0.07780309  0.41116257    -0.03900
C350        C  0.36874253  0.06179828  0.42104649    -0.01000
C351        C  0.36987869  0.03594203  0.39799739     0.04000
C352        C  0.34962933  0.02563072  0.36522714    -0.03900
C353        C  0.32957842  0.04257018  0.35420085    -0.01000
C354        C  0.32793766  0.06799934  0.37755607     0.04000
C355        C  0.38905791  0.07140825  0.45557256     0.38600
C356        C  0.31269344  0.03567074  0.31651249     0.38600
C357        C  0.30706383  0.08496230  0.36575298     0.37000
C358        C  0.39231714  0.02046230  0.40776872     0.37000
N359        N  0.29043395  0.09856788  0.35668337    -0.37800
N360        N  0.41064868  0.00871393  0.41622460    -0.37800
N361        N  0.29964881  0.03140995  0.28599931    -0.37200
N362        N  0.40532723  0.07891290  0.48306053    -0.37200
C363        C  0.25533027  0.08347040  0.55652268    -0.03900
C364        C  0.23847168  0.06044956  0.52960151    -0.01000
C365        C  0.21031648  0.04027737  0.54234497     0.04000
C366        C  0.19975124  0.04259916  0.58215442    -0.03900
C367        C  0.21911134  0.06236557  0.61046238    -0.01000
C368        C  0.24688301  0.08269704  0.59769005     0.04000
C369        C  0.24832444  0.05950604  0.48789819     0.38600
C370        C  0.21031807  0.06255381  0.65265917     0.38600
C371        C  0.26588460  0.10426935  0.62646613     0.37000
C372        C  0.19097403  0.01888306  0.51375566     0.37000
N373        N  0.28088058  0.12155850  0.64940269    -0.37800
N374        N  0.17547717  0.00182913  0.49099487    -0.37800
N375        N  0.20503382  0.06225610  0.68697202    -0.37200
N376        N  0.25621594  0.05864944  0.45465193    -0.37200
C377        C  0.24251502  0.15967132  0.43709872    -0.03900
C378        C  0.21266741  0.14112452  0.44711436    -0.01000
C379        C  0.18733224  0.13954420  0.42135729     0.04000
C380        C  0.19104847  0.15798554  0.38672069    -0.03900
C381        C  0.22142360  0.17375300  0.37448851    -0.01000
C382        C  0.24685355  0.17490191  0.39971101     0.04000
C383        C  0.20777055  0.12401008  0.48440879     0.38600
C384        C  0.22660032  0.18795919  0.33510527     0.38600
C385        C  0.27744766  0.19255136  0.38777005     0.37000
C386        C  0.15801575  0.11743260  0.42900873     0.37000
N387        N  0.30189000  0.20667970  0.37837909    -0.37800
N388        N  0.13501767  0.09892345  0.43493286    -0.37800
N389        N  0.23084023  0.19895199  0.30340533    -0.37200
N390        N  0.20342576  0.11049409  0.51431390    -0.37200
C391        C  0.43584596  0.32743335  0.38879142    -0.03900
C392        C  0.42033064  0.30350800  0.36194243    -0.01000
C393        C  0.40911436  0.27316633  0.37584461     0.04000
C394        C  0.41376279  0.26638676  0.41651925    -0.03900
C395        C  0.43016196  0.28999632  0.44271809    -0.01000
C396        C  0.43865535  0.32048658  0.42990596     0.04000
C397        C  0.41399524  0.31003305  0.32061485     0.38600
C398        C  0.43783868  0.28299784  0.48347996     0.38600
C399        C  0.94419020  0.34403326  0.46083704     0.37000
C400        C  0.39195730  0.24916641  0.34855471     0.37000
N401        N  0.94639721  0.36109448  0.48758033    -0.37800
N402        N  0.37834959  0.23001840  0.32676634    -0.37800
N403        N  0.44405694  0.27731345  0.51582347    -0.37200
N404        N  0.40777217  0.31456671  0.28782113    -0.37200
C405        C  0.35358740  0.32560498  0.62640286    -0.03900
C406        C  0.33576481  0.29731751  0.64229345    -0.01000
C407        C  0.33013134  0.26991454  0.61920427     0.04000
C408        C  0.34207846  0.27029822  0.57953336    -0.03900
C409        C  0.36109173  0.29837154  0.56456563    -0.01000
C410        C  0.36842279  0.32524021  0.58905327     0.04000
C411        C  0.32335221  0.29652319  0.68282701     0.38600
C412        C  0.36977689  0.30058230  0.52228430     0.38600
C413        C  0.39226212  0.35214370  0.57685000     0.37000
C414        C  0.31166046  0.24137077  0.63624343     0.37000
N415        N  0.41192335  0.37341919  0.56765689    -0.37800
N416        N  0.29685812  0.21862098  0.64983850    -0.37800
N417        N  0.37535941  0.30255084  0.48804250    -0.37200
N418        N  0.31356698  0.29573972  0.71530825    -0.37200
C419        C  0.40867730  0.00559322  0.16676798    -0.03900
C420        C  0.41879625  0.03413925  0.18675215    -0.01000
C421        C  0.45004254  0.04584488  0.19826109     0.04000
C422        C  0.46958625  0.02705546  0.19572048    -0.03900
C423        C  0.46153604  0.00359147  0.16540461    -0.01000
C424        C  0.43091214  0.99219134  0.15242770     0.04000
C425        C  0.39751967  0.05138005  0.19508123     0.38600
C426        C  0.48477166  0.49451873  0.14647815     0.38600
C427        C  0.42328293  0.46804469  0.12583112     0.37000
C428        C  0.46379396  0.07846451  0.20147407     0.37000
N429        N  0.41634106  0.44717970  0.10401132    -0.37800
N430        N  0.47489857  0.10466350  0.20214325    -0.37800
N431        N  0.50185972  0.48545058  0.12791098    -0.37200
N432        N  0.38048306  0.06522031  0.20152316    -0.37200
C433        C  0.02403298  0.47131352  0.20940406    -0.03900
C434        C  0.05614589  0.45429075  0.20644159    -0.01000
C435        C  0.04919539  0.41347401  0.21438439     0.04000
C436        C  0.01027513  0.38870035  0.22572532    -0.03900
C437        C  0.47880803  0.40589333  0.23191345    -0.01000
C438        C  0.48523745  0.44658412  0.22374449     0.04000
C439        C  0.08735694  0.47214157  0.20056956     0.38600
C440        C  0.44838132  0.38795568  0.24231236     0.38600
C441        C  0.45985447  0.45812823  0.23203022     0.37000
C442        C  0.07497622  0.40173946  0.21019805     0.37000
N443        N  0.43802228  0.46524932  0.23859662    -0.37800
N444        N  0.09681486  0.39399370  0.20709388    -0.37800
N445        N  0.42360831  0.37492251  0.25158686    -0.37200
N446        N  0.11287257  0.48476931  0.19455778    -0.37200
C447        C  0.12269621  0.11576343  0.15093527    -0.03900
C448        C  0.11613355  0.08415115  0.14497659    -0.01000
C449        C  0.09352344  0.06365085  0.16871902     0.04000
C450        C  0.07914510  0.07450001  0.20182422    -0.03900
C451        C  0.08800685  0.10638530  0.20954635    -0.01000
C452        C  0.11095353  0.12651869  0.18590240     0.04000
C453        C  0.12990055  0.07298092  0.11064349     0.38600
C454        C  0.06976200  0.11930649  0.23638703     0.38600
C455        C  0.11827659  0.15918668  0.19301613     0.37000
C456        C  0.08232177  0.03256457  0.15373092     0.37000
N457        N  0.12355989  0.18515227  0.19897923    -0.37800
N458        N  0.07341042  0.51061912  0.14062413    -0.37800
N459        N  0.05500605  0.13013483  0.25677785    -0.37200
N460        N  0.14075822  0.06373121  0.08350189    -0.37200
C461        C  0.06584876  0.26973982  0.93346368    -0.03900
C462        C  0.05929740  0.24712306  0.96399731    -0.01000
C463        C  0.04621275  0.21606990  0.95358135     0.04000
C464        C  0.03772481  0.20728404  0.91320213    -0.03900
C465        C  0.04044383  0.23016952  0.88381920    -0.01000
C466        C  0.05414215  0.26129437  0.89406535     0.04000
C467        C  0.06785128  0.25505032  0.00595490     0.38600
C468        C  0.03176831  0.22183073  0.84211483     0.38600
C469        C  0.05646729  0.28465214  0.86391743     0.37000
C470        C  0.04392699  0.19301060  0.98411184     0.37000
N471        N  0.05787700  0.30319370  0.83985892    -0.37800
N472        N  0.04265627  0.17506986  0.00893109    -0.37800
N473        N  0.02521288  0.21605255  0.80849322    -0.37200
N474        N  0.07431991  0.26103093  0.03956960    -0.37200
C475        C  0.15019321  0.25816294  0.01693501    -0.03900
C476        C  0.15981156  0.25750609  0.05754720    -0.01000
C477        C  0.15870275  0.22941538  0.07563318     0.04000
C478        C  0.14752635  0.20177271  0.05361993    -0.03900
C479        C  0.14048307  0.20265597  0.01211750    -0.01000
C480        C  0.14215536  0.23052794  0.99369020     0.04000
C481        C  0.17021663  0.28548407  0.08136574     0.38600
C482        C  0.12830026  0.17470322  0.98860625     0.38600
C483        C  0.13337387  0.22972537  0.95116816     0.37000
C484        C  0.16636904  0.22901458  0.11812575     0.37000
N485        N  0.12659998  0.22897824  0.91730423    -0.37800
N486        N  0.17264966  0.22976628  0.15211983    -0.37800
N487        N  0.11795518  0.15354508  0.96807016    -0.37200
N488        N  0.17842864  0.30762191  0.10072496    -0.37200
C489        C  0.15897514  0.44675031  0.93826350    -0.03900
C490        C  0.13430530  0.45982419  0.93993019    -0.01000
C491        C  0.13309734  0.48323649  0.91291526     0.04000
C492        C  0.15571037  0.49300362  0.88260245    -0.03900
C493        C  0.17696333  0.47651093  0.87668721    -0.01000
C494        C  0.17952154  0.45446770  0.90479209     0.04000
C495        C  0.10930002  0.44881682  0.96848928     0.38600
C496        C  0.19548627  0.48145210  0.84020250     0.38600
C497        C  0.20366817  0.44024221  0.89824795     0.37000
C498        C  0.10842279  0.49685004  0.91746147     0.37000
N499        N  0.22310886  0.42928242  0.89222139    -0.37800
N500        N  0.08782888  0.00923008  0.93071249    -0.37800
N501        N  0.20984751  0.48477406  0.81075761    -0.37200
N502        N  0.08916989  0.44003690  0.99090694    -0.37200
C503        C  0.02383589  0.34450328  0.15734089    -0.03900
C504        C  0.01887579  0.35393882  0.11816675    -0.01000
C505        C  0.04221218  0.35876689  0.08859817     0.04000
C506        C  0.06979393  0.35201840  0.09720008    -0.03900
C507        C  0.07413577  0.34111001  0.13587244    -0.01000
C508        C  0.05131224  0.33757797  0.16586926     0.04000
C509        C  0.48949487  0.35791288  0.10806623     0.38600
C510        C  0.10264009  0.33476130  0.14538237     0.38600
C511        C  0.05577059  0.32639226  0.20565590     0.37000
C512        C  0.03780295  0.37064475  0.04931677     0.37000
N513        N  0.05932114  0.31766628  0.23750157    -0.37800
N514        N  0.03427976  0.38037646  0.01811643    -0.37800
N515        N  0.12545221  0.32989128  0.15303159    -0.37200
N516        N  0.46599715  0.36095400  0.09968554    -0.37200
C517        C  0.30383226  0.45476081  0.11269779    -0.03900
C518        C  0.30310847  0.45889451  0.07022088    -0.01000
C519        C  0.27495812  0.45008742  0.04917366     0.04000
C520        C  0.24812821  0.43332589  0.06904651    -0.03900
C521        C  0.24876186  0.42822610  0.11104918    -0.01000
C522        C  0.27618760  0.43963631  0.13298520     0.04000
C523        C  0.33104024  0.46785998  0.04671295     0.38600
C524        C  0.22146896  0.40977204  0.13149517     0.38600
C525        C  0.27593788  0.43434215  0.17632011     0.37000
C526        C  0.27347323  0.45821079  0.00700637     0.37000
N527        N  0.27462799  0.92720907  0.21262791    -0.37800
N528        N  0.27209948  0.46474175  0.97343892    -0.37800
N529        N  0.19983961  0.39489389  0.14779518    -0.37200
N530        N  0.35245048  0.47367614  0.02607435    -0.37200
C531        C  0.24777882  0.35019487  0.90470967    -0.03900
C532        C  0.24598933  0.32868044  0.87263806    -0.01000
C533        C  0.27284216  0.32491800  0.85519430     0.04000
C534        C  0.30161599  0.34541634  0.86507153    -0.03900
C535        C  0.30327740  0.36832435  0.89487642    -0.01000
C536        C  0.27696639  0.36877245  0.91700870     0.04000
C537        C  0.21659861  0.31064226  0.85651558     0.38600
C538        C  0.33111998  0.39329438  0.90050516     0.38600
C539        C  0.28072517  0.38615906  0.95450303     0.37000
C540        C  0.27078638  0.29967970  0.82722211     0.37000
N541        N  0.28453403  0.39906740  0.98525369    -0.37800
N542        N  0.26930064  0.27950177  0.80509832    -0.37800
N543        N  0.35278301  0.41396059  0.90449878    -0.37200
N544        N  0.19318614  0.29635819  0.84355328    -0.37200
C545        C  0.25828305  0.08702254  0.93763724    -0.03900
C546        C  0.26398605  0.07965975  0.89754580    -0.01000
C547        C  0.23977096  0.06197913  0.87329376     0.04000
C548        C  0.20937758  0.05325679  0.88860413    -0.03900
C549        C  0.20453610  0.05859757  0.93012551    -0.01000
C550        C  0.22950492  0.07344397  0.95513817     0.04000
C551        C  0.29459523  0.09161558  0.88098209     0.38600
C552        C  0.17406862  0.05440389  0.94607745     0.38600
C553        C  0.22500557  0.07724868  0.99823783     0.37000
C554        C  0.24600818  0.05508978  0.83169617     0.37000
N555        N  0.22125854  0.07998535  0.03261210    -0.37800
N556        N  0.25141007  0.04998268  0.79852524    -0.37800
N557        N  0.15052567  0.05281587  0.96039032    -0.37200
N558        N  0.31912248  0.10126959  0.86819039    -0.37200
C559        C  0.23687597  0.16013835  0.05304851    -0.03900
C560        C  0.23376393  0.16902365  0.09374191    -0.01000
C561        C  0.20412486  0.16621466  0.11042588     0.04000
C562        C  0.17737227  0.15358786  0.08698618    -0.03900
C563        C  0.18068570  0.14170401  0.04826398    -0.01000
C564        C  0.20978782  0.14722058  0.03020715     0.04000
C565        C  0.26105012  0.18319966  0.11725384     0.38600
C566        C  0.15383079  0.12258903  0.02758977     0.38600
C567        C  0.21130669  0.14099550  0.98716447     0.37000
C568        C  0.20117628  0.17523546  0.15199695     0.37000
N569        N  0.21178595  0.13653766  0.95260775    -0.37800
N570        N  0.19926973  0.18209868  0.18555403    -0.37800
N571        N  0.13243043  0.10643081  0.01193194    -0.37200
N572        N  0.28293924  0.19481183  0.13576929    -0.37200
C573        C  0.35151421  0.27046100  0.93106790    -0.03900
C574        C  0.35879648  0.29996250  0.94881699    -0.01000
C575        C  0.36386307  0.32633500  0.92423586     0.04000
C576        C  0.36067511  0.32361846  0.88159730    -0.03900
C577        C  0.35554218  0.29386646  0.86394023    -0.01000
C578        C  0.35075436  0.26774427  0.88851691     0.04000
C579        C  0.35988411  0.30312447  0.99254344     0.38600
C580        C  0.35474115  0.28933840  0.82040211     0.38600
C581        C  0.34424380  0.23762345  0.86983497     0.37000
C582        C  0.37322835  0.35631042  0.94299848     0.37000
N583        N  0.33898580  0.21363119  0.85495167    -0.37800
N584        N  0.38140403  0.37994169  0.95896667    -0.37800
N585        N  0.35407423  0.28462336  0.78582463    -0.37200
N586        N  0.36052524  0.30577820  0.02746613    -0.37200
C587        C  0.43369152  0.16872743  0.96825259    -0.03900
C588        C  0.43639021  0.17847656  0.92705899    -0.01000
C589        C  0.45783976  0.17119744  0.90050836     0.04000
C590        C  0.47746077  0.15496203  0.91440651    -0.03900
C591        C  0.47375874  0.14356577  0.95416756    -0.01000
C592        C  0.45271559  0.15069142  0.98107528     0.04000
C593        C  0.41800097  0.19677726  0.91148604     0.38600
C594        C  0.99190897  0.12425206  0.96762544     0.38600
C595        C  0.45180809  0.13952239  0.02224176     0.37000
C596        C  0.45895234  0.17920952  0.85811735     0.37000
N597        N  0.45143004  0.13058658  0.05496969    -0.37800
N598        N  0.45908506  0.18498285  0.82406087    -0.37800
N599        N  0.00592308  0.10844188  0.97834451    -0.37200
N600        N  0.40361709  0.21154324  0.89864363    -0.37200
C601        C  0.42405883  0.25540456  0.09794175    -0.03900
C602        C  0.45487336  0.25614612  0.10369927    -0.01000
C603        C  0.47254262  0.27468503  0.13449452     0.04000
C604        C  0.46019393  0.29442256  0.15749177    -0.03900
C605        C  0.43022135  0.29575283  0.14854146    -0.01000
C606        C  0.41197391  0.27570464  0.11966900     0.04000
C607        C  0.46794965  0.23681636  0.07873783     0.38600
C608        C  0.41736295  0.31703618  0.16955977     0.38600
C609        C  0.37997005  0.27418060  0.11473941     0.37000
C610        C  0.00211070  0.27107287  0.14452352     0.37000
N611        N  0.35437505  0.27269858  0.11121493    -0.37800
N612        N  0.02537193  0.26713582  0.15204477    -0.37800
N613        N  0.40595589  0.33355111  0.18532140    -0.37200
N614        N  0.47838930  0.22160229  0.05854371    -0.37200
C615        C  0.34213235  0.07059872  0.08387320    -0.03900
C616        C  0.36488133  0.05741842  0.06971447    -0.01000
C617        C  0.37018729  0.03235691  0.08963094     0.04000
C618        C  0.35092334  0.01798721  0.12148406    -0.03900
C619        C  0.32735505  0.03017464  0.13464855    -0.01000
C620        C  0.32320051  0.05653835  0.11638341     0.04000
C621        C  0.38247370  0.06901408  0.03353380     0.38600
C622        C  0.30843402  0.01642011  0.16869976     0.38600
C623        C  0.30034874  0.06979941  0.13235360     0.37000
C624        C  0.39537685  0.02136107  0.07652520     0.37000
N625        N  0.28205794  0.08023665  0.14536865    -0.37800
N626        N  0.41571534  0.01342178  0.06478247    -0.37800
N627        N  0.29336118  0.00542547  0.19593307    -0.37200
N628        N  0.39636403  0.07791570  0.00451466    -0.37200
C629        C  0.44171792  0.44625772  0.79520828    -0.03900
C630        C  0.41004101  0.44197631  0.79056705    -0.01000
C631        C  0.38851997  0.41672194  0.80814813     0.04000
C632        C  0.39817568  0.39280922  0.82564455    -0.03900
C633        C  0.42943508  0.39903600  0.83525933    -0.01000
C634        C  0.45101097  0.42651588  0.82188996     0.04000
C635        C  0.39911032  0.46296633  0.76666019     0.38600
C636        C  0.43921764  0.37689332  0.85831557     0.38600
C637        C  0.48267199  0.43354237  0.83433694     0.37000
C638        C  0.35634453  0.41522939  0.80688070     0.37000
N639        N  0.50773253  0.43887546  0.84534278    -0.37800
N640        N  0.33088017  0.41473220  0.80566339    -0.37800
N641        N  0.44662642  0.35908356  0.87706827    -0.37200
N642        N  0.38929419  0.47877261  0.74732382    -0.37200
C643        C  0.98423873  0.05571916  0.79225364    -0.03900
C644        C  0.46636012  0.05383526  0.82807856    -0.01000
C645        C  0.97219873  0.07884400  0.85591999     0.04000
C646        C  0.99476219  0.10653723  0.84733942    -0.03900
C647        C  0.00883322  0.10997781  0.80885682    -0.01000
C648        C  0.00535391  0.08454417  0.78285123     0.04000
C649        C  0.44355772  0.02545145  0.83833657     0.38600
C650        C  0.03008991  0.13929671  0.79800440     0.38600
C651        C  0.02632271  0.08848795  0.74897610     0.37000
C652        C  0.45630650  0.07511986  0.89439903     0.37000
N653        N  0.04374262  0.09378852  0.72255669    -0.37800
N654        N  0.44307487  0.07130630  0.92477812    -0.37800
N655        N  0.04741654  0.16236617  0.78935361    -0.37200
N656        N  0.42555790  0.00290606  0.84740831    -0.37200
C657        C  0.04503245  0.99548654  0.79822104    -0.03900
C658        C  0.06483748  0.47494364  0.78339878    -0.01000
C659        C  0.09522730  0.48147546  0.79769923     0.04000
C660        C  0.10565204  0.00989317  0.82824242    -0.03900
C661        C  0.08602417  0.02657989  0.84161745    -0.01000
C662        C  0.05522938  0.01788920  0.82929834     0.04000
C663        C  0.05308474  0.44844033  0.75746404     0.38600
C664        C  0.09830599  0.05468253  0.86504802     0.38600
C665        C  0.03555936  0.03352759  0.84831725     0.37000
C666        C  0.11448539  0.46282655  0.78520514     0.37000
N667        N  0.02150199  0.04628014  0.86677964    -0.37800
N668        N  0.12994483  0.44802835  0.77534774    -0.37800
N669        N  0.10808474  0.07710038  0.88344078    -0.37200
N670        N  0.04544404  0.42713456  0.73653093    -0.37200
C671        C  0.44451502  0.44151015  0.70350470    -0.03900
C672        C  0.42409281  0.44668322  0.67438868    -0.01000
C673        C  0.40028953  0.42200289  0.65895638     0.04000
C674        C  0.39682636  0.39181475  0.67233898    -0.03900
C675        C  0.41992737  0.38617657  0.69599243    -0.01000
C676        C  0.44378940  0.41084380  0.71150261     0.04000
C677        C  0.42506645  0.47751911  0.66335970     0.38600
C678        C  0.41741034  0.35501899  0.70732849     0.38600
C679        C  0.46706367  0.40404494  0.73598841     0.37000
C680        C  0.37654200  0.42867019  0.63486401     0.37000
N681        N  0.48471599  0.39684217  0.75543228    -0.37800
N682        N  0.35769013  0.43517842  0.61693950    -0.37800
N683        N  0.41509769  0.33012166  0.71641378    -0.37200
N684        N  0.42844674  0.00287196  0.64961402    -0.37200
C685        C  0.47943459  0.10970196  0.66422719    -0.03900
C686        C  0.49682564  0.09167616  0.64709428    -0.01000
C687        C  0.49579355  0.06271263  0.66364957     0.04000
C688        C  0.47692008  0.05093941  0.69775723    -0.03900
C689        C  0.95505147  0.06617842  0.70865961    -0.01000
C690        C  0.95727316  0.09571520  0.69366552     0.04000
C691        C  0.51847687  0.10396788  0.61505045     0.38600
C692        C  0.93049363  0.05214866  0.73647219     0.38600
C693        C  0.93800925  0.11253174  0.71142405     0.37000
C694        C  0.51686460  0.04734024  0.64746018     0.37000
N695        N  0.92225313  0.12500434  0.72689577    -0.37800
N696        N  0.53405281  0.03618772  0.63284673    -0.37800
N697        N  0.91066396  0.04195558  0.75881775    -0.37200
N698        N  0.53621299  0.11229397  0.58946587    -0.37200
C699        C  0.04779300  0.99819403  0.70396858    -0.03900
C700        C  0.04440594  0.47728333  0.66587212    -0.01000
C701        C  0.06827154  0.48234895  0.63719916     0.04000
C702        C  0.09942127  0.00547476  0.65190335    -0.03900
C703        C  0.10144235  0.02429411  0.68657312    -0.01000
C704        C  0.07558073  0.02159816  0.71135888     0.04000
C705        C  0.01776313  0.45115596  0.65973865     0.38600
C706        C  0.12837983  0.05018231  0.69304800     0.38600
C707        C  0.07757217  0.04513378  0.74182633     0.37000
C708        C  0.06296400  0.46634178  0.59855971     0.37000
N709        N  0.08106138  0.06463236  0.76558968    -0.37800
N710        N  0.05868775  0.45446134  0.56714868    -0.37800
N711        N  0.14857906  0.07194869  0.69870088    -0.37200
N712        N  0.99750442  0.42965104  0.65296547    -0.37200
C713        C  0.48905874  0.99634777  0.70887704     0.46900
H714        H  0.48939072  0.99471217  0.67544419    -0.02100
C715        C  0.98897355  0.49746532  0.78651860     0.47000
H716        H  0.98858972  0.49760560  0.82000491    -0.02100
C717        C  0.01958417  0.99607164  0.72906411    -0.15800
C718        C  0.48180390  0.52498123  0.72483323    -0.15600
C719        C  0.46489370  0.96886477  0.72753384    -0.15900
C720        C  0.01844586  0.99596656  0.77107548    -0.15900
C721        C  0.48366922  0.52646075  0.76693380    -0.15500
C722        C  0.46330035  0.97025251  0.76913752    -0.15800
O723        O  0.36843075  0.62000517  0.05768949    -0.79500
O724        O  0.36560876  0.73340072  0.96773155    -0.64100
O725        O  0.34927139  0.67205250  0.04968044    -1.10700
C726        C  0.27787576  0.61538999  0.95448730     1.07400
O727        O  0.31591429  0.72794521  0.96107481    -0.77300
O728        O  0.27262306  0.68273500  0.00131669    -0.64900
Ni729      Ni  0.38212176  0.66169940  0.07486863     1.34900
C730        C  0.26739476  0.66514440  0.03173619     0.86200
O731        O  0.39008076  0.73148544  0.04200047    -0.77900
O732        O  0.39854529  0.70253533  0.09300077    -0.88200
C733        C  0.34387146  0.74289704  0.95459516     0.85700
O734        O  0.41080232  0.66876744  0.03143266    -0.66400
O735        O  0.27659030  0.64147516  0.94250831    -0.85700
C736        C  0.41028863  0.67602460  0.99462790     0.86600
C737        C  0.40272874  0.72798041  0.07545986     1.08100
H738        H  0.33973350  0.66628558  0.95605862     0.39900
O739        O  0.32951417  0.67299768  0.97841293    -1.08300
O740        O  0.28505415  0.64914454  0.04193084    -0.65000
Ni741      Ni  0.32153861  0.64111035  0.01768559     1.26300
O742        O  0.39048066  0.68834033  0.98187186    -0.65200
O743        O  0.29512703  0.61150561  0.98282024    -0.77500
C744        C  0.34243622  0.60145392  0.06491358     0.86000
O745        O  0.31828987  0.60909317  0.05729058    -0.64700
Ni746      Ni  0.29711020  0.68408760  0.95386680     1.27400
Ni747      Ni  0.35942318  0.70287186  0.00910533     1.26100
H748        H  0.33786134  0.67864458  0.07068412     0.40500
N749        N  0.35582695  0.84981378  0.85570937    -0.02000
C750        C  0.37479693  0.86092233  0.82366045     0.00600
C751        C  0.35856648  0.85248690  0.78780885    -0.22300
C752        C  0.32822321  0.84393802  0.79781038    -0.22500
C753        C  0.32736233  0.84448547  0.83956447     0.00500
H754        H  0.36741355  0.85905598  0.75791580     0.14200
H755        H  0.30938071  0.84184679  0.77709609     0.14300
O756        O  0.19803455  0.82767781  0.93075920    -0.79500
O757        O  0.10106468  0.83382529  0.05124860    -0.64100
O758        O  0.15229318  0.85118729  0.95809076    -1.10700
C759        C  0.21878222  0.91806622  0.04802080     1.07400
O760        O  0.10726180  0.88351264  0.05940177    -0.77300
O761        O  0.14484872  0.92057739  0.00514991    -0.64900
Ni762      Ni  0.15512982  0.81986710  0.92207835     1.34900
C763        C  0.16108080  0.92480797  0.97324832     0.86200
O764        O  0.09318692  0.81140859  0.97522911    -0.77900
O765        O  0.11167164  0.80799540  0.91304381    -0.88200
C766        C  0.09365756  0.85575381  0.06803772     0.85700
O767        O  0.15036839  0.78868977  0.96005830    -0.66400
O768        O  0.19434263  0.92498371  0.05693877    -0.85700
C769        C  0.14747606  0.78681255  0.99804616     0.86600
C770        C  0.09097300  0.79905781  0.94005040     1.08100
H771        H  0.16587430  0.85776040  0.05318223     0.39900
O772        O  0.15892794  0.86837135  0.03174393    -1.08300
O773        O  0.18155033  0.91142693  0.96787987    -0.65000
Ni774      Ni  0.18744372  0.87431049  0.98837281     1.26300
O775        O  0.14139575  0.80754806  0.01970842    -0.65200
O776        O  0.21995656  0.89751030  0.02209760    -0.77500
C777        C  0.21884179  0.85265659  0.92711676     0.86000
O778        O  0.21608776  0.87673370  0.94435418    -0.64700
Ni779      Ni  0.15103390  0.90311314  0.05554302     1.27400
Ni780      Ni  0.12586132  0.84066535  0.00369098     1.26100
H781        H  0.14478148  0.86501445  0.94190186     0.40500
N782        N  0.14798041  0.65743430  0.09909035    -0.02000
C783        C  0.12406081  0.63521362  0.11534220     0.00600
C784        C  0.09617848  0.63785991  0.10240883    -0.22300
C785        C  0.10226964  0.66264361  0.07838590    -0.22500
C786        C  0.13366271  0.67401596  0.07652133     0.00500
H787        H  0.07367008  0.62457092  0.11248011     0.14200
H788        H  0.08563992  0.67199451  0.06443580     0.14300
N789        N  0.15834747  0.51976667  0.85804731    -0.02000
C790        C  0.14116099  0.52096752  0.82497533     0.00600
C791        C  0.15600568  0.54496409  0.80038834    -0.22300
C792        C  0.18332170  0.55930754  0.81866223    -0.22500
C793        C  0.18442882  0.54343396  0.85370132     0.00500
H794        H  0.14677331  0.55267238  0.77376096     0.14200
H795        H  0.20002766  0.57991560  0.80838966     0.14300
N796        N  0.99879411  0.83684076  0.18858425    -0.02000
C797        C  0.00055201  0.85267314  0.22405289     0.00600
C798        C  0.47953538  0.83547326  0.25104534    -0.22300
C799        C  0.46419055  0.80867273  0.23151249    -0.22500
C800        C  0.47594709  0.81040732  0.19275232     0.00500
H801        H  0.47324949  0.84329024  0.27994884     0.14200
H802        H  0.44430716  0.79140828  0.24270730     0.14300
N803        N  0.00510006  0.65400413  0.89102847    -0.02000
C804        C  0.01210420  0.62777423  0.88088107     0.00600
C805        C  0.04305999  0.63183511  0.88757354    -0.22300
C806        C  0.05592338  0.66160270  0.89911082    -0.22500
C807        C  0.03245884  0.67474433  0.90043537     0.00500
H808        H  0.05566769  0.61596373  0.87947254     0.14200
H809        H  0.07994459  0.67272380  0.90474658     0.14300
N810        N  0.35468746  0.49119407  0.13766799    -0.02000
C811        C  0.37642087  0.48832023  0.16440018     0.00600
C812        C  0.36751851  0.95761170  0.18038383    -0.22300
C813        C  0.34037633  0.94198574  0.16273956    -0.22500
C814        C  0.33200938  0.96230174  0.13802070     0.00500
H815        H  0.38121026  0.94777957  0.19956142     0.14200
H816        H  0.32830293  0.91808060  0.16696795     0.14300
O817        O  0.30979373  0.72566241  0.55046755    -0.79500
O818        O  0.32383543  0.61209144  0.44659544    -0.64100
O819        O  0.32797048  0.67319662  0.52814849    -1.10700
C820        C  0.39916333  0.73557233  0.43579329     1.07400
O821        O  0.37425818  0.62588483  0.44238336    -0.77300
O822        O  0.41232742  0.67427823  0.47691711    -0.64900
Ni823      Ni  0.29203761  0.68126519  0.54844795     1.34900
C824        C  0.41016307  0.68218414  0.51345010     0.86200
O825        O  0.29869953  0.61096119  0.52004462    -0.77900
O826        O  0.27143443  0.63815527  0.55156840    -0.88200
C827        C  0.34843154  0.60670327  0.43546517     0.85700
O828        O  0.27297891  0.68259259  0.49692630    -0.66400
O829        O  0.40032485  0.71129053  0.41745946    -0.85700
C830        C  0.26976934  0.66401365  0.46706057     0.86600
C831        C  0.27646451  0.61293473  0.54203864     1.08100
H832        H  0.33823061  0.68034440  0.43586635     0.39900
O833        O  0.35018850  0.67480921  0.45685584    -1.08300
O834        O  0.38924405  0.69370251  0.52477701    -0.65000
Ni835      Ni  0.35620740  0.70480758  0.49893668     1.26300
O836        O  0.28742316  0.64719934  0.46127532    -0.65200
O837        O  0.38416415  0.73572773  0.46832854    -0.77500
C838        C  0.33747758  0.74205473  0.55620418     0.86000
O839        O  0.35987671  0.73420980  0.54172976    -0.64700
Ni840      Ni  0.38572927  0.66878753  0.43116999     1.27400
Ni841      Ni  0.32413138  0.64226503  0.48744120     1.26100
H842        H  0.33810947  0.66766500  0.55118914     0.40500
N843        N  0.35131096  0.85543652  0.64239476    -0.02000
C844        C  0.36742246  0.87278948  0.67317966     0.00600
C845        C  0.34824997  0.88446748  0.69688366    -0.22300
C846        C  0.32021479  0.87609834  0.67909690    -0.22500
C847        C  0.32300282  0.85888915  0.64574299     0.00500
H848        H  0.35536645  0.90181687  0.72025842     0.14200
H849        H  0.30072586  0.88369576  0.68760872     0.14300
O850        O  0.10398547  0.88692075  0.45947255    -0.79500
O851        O  0.22235243  0.86720037  0.52969431    -0.64100
O852        O  0.15528321  0.86812479  0.46416687    -1.10700
C853        C  0.10230413  0.79086572  0.55985790     1.07400
O854        O  0.20507418  0.81720080  0.52596429    -0.77300
O855        O  0.15083580  0.78015562  0.50977444    -0.64900
Ni856      Ni  0.14731193  0.90499401  0.45148373     1.34900
C857        C  0.14635582  0.78523409  0.47313560     0.86200
O858        O  0.21806838  0.89606404  0.46123278    -0.77900
O859        O  0.19028077  0.92603874  0.44037769    -0.88200
C860        C  0.22544270  0.84114267  0.53631551     0.85700
O861        O  0.15006336  0.91978631  0.50565665    -0.66400
O862        O  0.12792220  0.79799942  0.57819433    -0.85700
C863        C  0.16908838  0.91964416  0.53340588     0.86600
C864        C  0.21545778  0.91909300  0.44190249     1.08100
H865        H  0.15532237  0.85495449  0.55418513     0.39900
O866        O  0.15926319  0.84333199  0.53125303    -1.08300
O867        O  0.13836158  0.80818247  0.46203835    -0.65000
Ni868      Ni  0.12617550  0.83742859  0.49530853     1.26300
O869        O  0.18813146  0.90424696  0.53095957    -0.65200
O870        O  0.09818774  0.80409590  0.52689486    -0.77500
C871        C  0.08615556  0.86008965  0.45248003     0.86000
O872        O  0.09401545  0.83606604  0.45862343    -0.64700
Ni873      Ni  0.16674432  0.80828084  0.55249441     1.27400
Ni874      Ni  0.18945117  0.86973867  0.49703015     1.26100
H875        H  0.15855011  0.85941385  0.43833886     0.40500
N876        N  0.14799886  0.51046593  0.60977321    -0.02000
C877        C  0.11895690  0.51346254  0.61063914     0.00600
C878        C  0.11636813  0.53626637  0.58515933    -0.22300
C879        C  0.14445482  0.54885947  0.56871417    -0.22500
C880        C  0.16328147  0.53314738  0.58419988     0.00500
H881        H  0.09689447  0.54504308  0.58249693     0.14200
H882        H  0.15106825  0.56877497  0.54962625     0.14300
N883        N  0.49642078  0.66375717  0.63299751    -0.02000
C884        C  0.99241448  0.64441972  0.66547112     0.00600
C885        C  0.01007526  0.65934788  0.69757237    -0.22300
C886        C  0.02563386  0.68817085  0.68510877    -0.22500
C887        C  0.01702539  0.69043457  0.64550576     0.00500
H888        H  0.01302007  0.64932221  0.72606391     0.14200
H889        H  0.04328269  0.70481034  0.70195073     0.14300
N890        N  0.98088011  0.87315609  0.37383157    -0.02000
C891        C  0.98453861  0.89910953  0.35241324     0.00600
C892        C  0.45609703  0.90086703  0.34061948    -0.22300
C893        C  0.43453136  0.87537335  0.35552650    -0.22500
C894        C  0.45042831  0.85858654  0.37585878     0.00500
H895        H  0.45158715  0.91787604  0.32114177     0.14200
H896        H  0.41008065  0.86909427  0.35037465     0.14300
N897        N  0.16604064  0.66606024  0.36772489    -0.02000
C898        C  0.15292625  0.65148586  0.33293842     0.00600
C899        C  0.14934036  0.67248859  0.30506989    -0.22300
C900        C  0.15720350  0.70025865  0.32400463    -0.22500
C901        C  0.16641523  0.69563516  0.36249015     0.00500
H902        H  0.13660454  0.66723039  0.27704904     0.14200
H903        H  0.15284041  0.72069722  0.31280563     0.14300
N904        N  0.34885173  0.49872487  0.34403491    -0.02000
C905        C  0.36899865  0.49461002  0.31534694     0.00600
C906        C  0.35461983  0.96549785  0.29482074    -0.22300
C907        C  0.32592041  0.95319374  0.31090296    -0.22500
C908        C  0.32236561  0.97301527  0.34100458     0.00500
H909        H  0.36545087  0.95454410  0.27258030     0.14200
H910        H  0.30996829  0.93128940  0.30298092     0.14300
C911        C  0.02811480  0.53073731  0.20885829     0.46900
H912        H  0.02929338  0.53255239  0.17566211    -0.02100
C913        C  0.02681141  0.52749813  0.28727423     0.47000
H914        H  0.02624959  0.52647751  0.32075657    -0.02100
C915        C  0.05466894  0.55544601  0.22901458    -0.15800
C916        C  0.49757600  0.53357781  0.22594453    -0.15600
C917        C  0.03082333  0.99851541  0.22461478    -0.15900
C918        C  0.05420866  0.55382950  0.27098784    -0.15900
C919        C  0.49647037  0.53196286  0.26849160    -0.15500
C920        C  0.03074276  0.99628029  0.26453986    -0.15800
C921        C  0.40318223  0.50893204  0.31439850    -0.03900
C922        C  0.41751762  0.53899141  0.30132391    -0.01000
C923        C  0.44957497  0.54856112  0.29299306     0.04000
C924        C  0.46672130  0.52730684  0.29304788    -0.03900
C925        C  0.45331422  0.99845035  0.31469760    -0.01000
C926        C  0.42163255  0.98858928  0.32382963     0.04000
C927        C  0.39969540  0.56010653  0.29668888     0.38600
C928        C  0.47270659  0.98508068  0.33734421     0.38600
C929        C  0.40886854  0.96017953  0.34545741     0.37000
C930        C  0.46567421  0.58080433  0.29211159     0.37000
N931        N  0.39866677  0.93776135  0.36303987    -0.37800
N932        N  0.47818111  0.60675134  0.29286382    -0.37800
N933        N  0.48621721  0.97505850  0.36000201    -0.37200
N934        N  0.38574821  0.57729820  0.29303163    -0.37200
C935        C  0.07964978  0.57312851  0.29793458    -0.03900
C936        C  0.07358283  0.59393480  0.32616660    -0.01000
C937        C  0.09761079  0.61935432  0.33982267     0.04000
C938        C  0.12870646  0.62124102  0.33149882    -0.03900
C939        C  0.13486252  0.59693593  0.31034542    -0.01000
C940        C  0.11061673  0.57353793  0.29260539     0.04000
C941        C  0.04252442  0.59059111  0.33932072     0.38600
C942        C  0.16647808  0.59757169  0.30408582     0.38600
C943        C  0.11790778  0.54961385  0.26978324     0.37000
C944        C  0.08949077  0.64552656  0.35591620     0.37000
N945        N  0.12506497  0.53076345  0.25249979    -0.37800
N946        N  0.08193774  0.66626501  0.36703332    -0.37800
N947        N  0.19183474  0.59842567  0.29948566    -0.37200
N948        N  0.01815831  0.58799245  0.35155996    -0.37200
C949        C  0.03246430  0.96598057  0.28281399    -0.03900
C950        C  0.02307176  0.93440756  0.25997336    -0.01000
C951        C  0.02114624  0.91217245  0.29426845     0.04000
C952        C  0.01370524  0.91821812  0.33396634    -0.03900
C953        C  0.03190355  0.94566886  0.35015341    -0.01000
C954        C  0.04405532  0.96911888  0.32300583     0.04000
C955        C  0.00995919  0.92208488  0.17925821     0.38600
C956        C  0.03879090  0.95074594  0.39278195     0.38600
C957        C  0.06647634  0.99681845  0.33726080     0.37000
C958        C  0.04211915  0.89370027  0.29690321     0.37000
N959        N  0.08445761  0.01822754  0.35022270    -0.37800
N960        N  0.05880469  0.87913459  0.30028609    -0.37800
N961        N  0.54655094  0.95732576  0.42586271    -0.37200
N962        N  0.00452009  0.91757429  0.14500505    -0.37200
C963        C  0.07811753  0.76396417  0.57673936    -0.03900
C964        C  0.04783347  0.76451354  0.58451727    -0.01000
C965        C  0.02722299  0.74036747  0.60630908     0.04000
C966        C  0.03609909  0.71453163  0.61805686    -0.03900
C967        C  0.06562805  0.71312754  0.60774058    -0.01000
C968        C  0.08662184  0.73772342  0.58819623     0.04000
C969        C  0.03842765  0.79061203  0.57202101     0.38600
C970        C  0.07504004  0.68658754  0.61875627     0.38600
C971        C  0.11732242  0.73569875  0.58047653     0.37000
C972        C  0.99780719  0.74325679  0.61884721     0.37000
N973        N  0.14166050  0.73362140  0.57489909    -0.37800
N974        N  0.47460063  0.74629621  0.62899779    -0.37800
N975        N  0.08278069  0.66563516  0.62761240    -0.37200
N976        N  0.03097875  0.81142721  0.56174403    -0.37200
C977        C  0.15107383  0.76298905  0.44328919    -0.03900
C978        C  0.17499581  0.77160428  0.41466757    -0.01000
C979        C  0.18236336  0.74904570  0.39065016     0.04000
C980        C  0.16614259  0.71779289  0.39563273    -0.03900
C981        C  0.14372353  0.70942995  0.42643168    -0.01000
C982        C  0.13528505  0.73198679  0.44861947     0.04000
C983        C  0.19201987  0.80357272  0.41000027     0.38600
C984        C  0.12786748  0.67786859  0.43503488     0.38600
C985        C  0.10878796  0.72332529  0.47519945     0.37000
C986        C  0.20676782  0.75796888  0.36094515     0.37000
N987        N  0.08720403  0.71615771  0.49546032    -0.37800
N988        N  0.22630157  0.76525183  0.33737035    -0.37800
N989        N  0.11383667  0.65340746  0.44390221    -0.37200
N990        N  0.20553147  0.82906227  0.40613388    -0.37200
C991        C  0.16760999  0.93768690  0.57042956    -0.03900
C992        C  0.13954081  0.93227543  0.59124251    -0.01000
C993        C  0.13577988  0.95374555  0.62028295     0.04000
C994        C  0.15871735  0.98198118  0.62481659    -0.03900
C995        C  0.18868750  0.98072318  0.61602663    -0.01000
C996        C  0.19317846  0.96052445  0.58565788     0.04000
C997        C  0.11545324  0.90389925  0.58442694     0.38600
C998        C  0.21270409  0.49915870  0.63343209     0.38600
C999        C  0.22357322  0.96425084  0.56968416     0.37000
C1000       C  0.11288180  0.94375193  0.65134791     0.37000
N1001       N  0.24809413  0.96795333  0.55730175    -0.37800
N1002       N  0.09480767  0.93446861  0.67630498    -0.37800
N1003       N  0.23347188  0.51154409  0.65352750    -0.37200
N1004       N  0.09657761  0.88101178  0.57903692    -0.37200
C1005       C  0.29525246  0.96520981  0.36928662    -0.03900
C1006       C  0.29869662  0.95771170  0.41015950    -0.01000
C1007       C  0.27271196  0.94459605  0.43471158     0.04000
C1008       C  0.24273276  0.93791182  0.41857840    -0.03900
C1009       C  0.23923625  0.94639945  0.37815321    -0.01000
C1010       C  0.26520190  0.95947305  0.35364228     0.04000
C1011       C  0.32877671  0.95976969  0.42597100     0.38600
C1012       C  0.20887535  0.93954917  0.36043590     0.38600
C1013       C  0.26217411  0.46596531  0.30990628     0.37000
C1014       C  0.27708613  0.93722326  0.47648447     0.37000
N1015       N  0.25841942  0.47008462  0.27604928    -0.37800
N1016       N  0.28088605  0.93127680  0.50966608    -0.37800
N1017       N  0.18464517  0.93402233  0.34639437    -0.37200
N1018       N  0.35222045  0.96021052  0.43952382    -0.37200
C1019       C  0.00426508  0.86589052  0.39694091    -0.03900
C1020       C  0.01464018  0.88239764  0.43285002    -0.01000
C1021       C  0.03987738  0.87828505  0.45338136     0.04000
C1022       C  0.05512993  0.85789290  0.43765321    -0.03900
C1023       C  0.04224295  0.83853441  0.40465596    -0.01000
C1024       C  0.01644265  0.84231814  0.38464473     0.04000
C1025       C  0.99898729  0.90346579  0.44867442     0.38600
C1026       C  0.05616350  0.81573069  0.39009950     0.38600
C1027       C  0.00236828  0.82169611  0.35202291     0.37000
C1028       C  0.05013387  0.89500558  0.49074621     0.37000
N1029       N  0.99134128  0.80406917  0.32695879    -0.37800
N1030       N  0.05848527  0.90818062  0.52062409    -0.37800
N1031       N  0.06720701  0.79745245  0.37860516    -0.37200
N1032       N  0.98657319  0.92034908  0.46126490    -0.37200
C1033       C  0.25076296  0.83864050  0.56054167    -0.03900
C1034       C  0.24495616  0.82680837  0.59990217    -0.01000
C1035       C  0.26915640  0.83173127  0.62739417     0.04000
C1036       C  0.29893247  0.84851020  0.61519426    -0.03900
C1037       C  0.30474047  0.85821892  0.57456740    -0.01000
C1038       C  0.28057709  0.85234681  0.54697018     0.04000
C1039       C  0.21390121  0.81146116  0.61307680     0.38600
C1040       C  0.33434975  0.87715550  0.56118688     0.38600
C1041       C  0.28613194  0.86111716  0.50476700     0.37000
C1042       C  0.26283291  0.82107035  0.66869561     0.37000
N1043       N  0.29069140  0.86787602  0.47113612    -0.37800
N1044       N  0.25708104  0.81261459  0.70150546    -0.37800
N1045       N  0.35686939  0.89270640  0.54769538    -0.37200
N1046       N  0.18930449  0.79917744  0.62398471    -0.37200
C1047       C  0.43255814  0.67684187  0.54431742    -0.03900
C1048       C  0.46014023  0.67054531  0.53209080    -0.01000
C1049       C  0.48040524  0.66466130  0.56121077     0.04000
C1050       C  0.47349521  0.66420260  0.60290393    -0.03900
C1051       C  0.44693317  0.67166361  0.61526864    -0.01000
C1052       C  0.42646659  0.67746024  0.58661580     0.04000
C1053       C  0.46904741  0.67147902  0.48971052     0.38600
C1054       C  0.44284980  0.67779528  0.65780035     0.38600
C1055       C  0.39974100  0.68512865  0.60179533     0.35800
C1056       C  0.50972011  0.66174056  0.54812340     0.37000
N1057       N  0.37874726  0.69153206  0.61443134    -0.37800
N1058       N  0.53313394  0.66030658  0.53628998    -0.37800
N1059       N  0.43986565  0.68414791  0.69127838    -0.37200
N1060       N  0.47652788  0.67213270  0.45609529    -0.37200
C1061       C  0.34773459  0.57796417  0.41346897    -0.03900
C1062       C  0.36916015  0.56202817  0.42276367    -0.01000
C1063       C  0.37042637  0.53650392  0.39912292     0.04000
C1064       C  0.35020106  0.52651629  0.36624144    -0.03900
C1065       C  0.33013362  0.54352122  0.35564552    -0.01000
C1066       C  0.32822759  0.56850727  0.37972648     0.04000
C1067       C  0.38965439  0.57141346  0.45717321     0.38600
C1068       C  0.31360291  0.53721794  0.31764604     0.38600
C1069       C  0.30716053  0.58541073  0.36854209     0.37000
C1070       C  0.39304591  0.52113525  0.40843998     0.37000
N1071       N  0.29036986  0.59899146  0.36008269    -0.37800
N1072       N  0.41158840  0.50962828  0.41679180    -0.37800
N1073       N  0.30093353  0.53340264  0.28685483    -0.37200
N1074       N  0.40613711  0.57871203  0.48448390    -0.37200
C1075       C  0.25381163  0.58489696  0.55630940    -0.03900
C1076       C  0.23763473  0.56249511  0.52814622    -0.01000
C1077       C  0.20871025  0.54279965  0.53873289     0.04000
C1078       C  0.19666638  0.54487143  0.57771984    -0.03900
C1079       C  0.21497853  0.56417544  0.60741166    -0.01000
C1080       C  0.24358555  0.58404584  0.59672655     0.04000
C1081       C  0.24905809  0.56172448  0.48720176     0.38600
C1082       C  0.20471481  0.56375625  0.64906964     0.38600
C1083       C  0.26185840  0.60490046  0.62684078     0.37000
C1084       C  0.19029738  0.52199324  0.50874482     0.37000
N1085       N  0.27636055  0.62162076  0.65076815    -0.37800
N1086       N  0.17553271  0.50544538  0.48485193    -0.37800
N1087       N  0.19830600  0.56306334  0.68306345    -0.37200
N1088       N  0.25809739  0.56092718  0.45452651    -0.37200
C1089       C  0.24344855  0.66114292  0.43847335    -0.03900
C1090       C  0.21345453  0.64289387  0.44843662    -0.01000
C1091       C  0.18825246  0.64144102  0.42247595     0.04000
C1092       C  0.19216586  0.65998952  0.38790633    -0.03900
C1093       C  0.22262978  0.67553426  0.37581786    -0.01000
C1094       C  0.24795296  0.67647370  0.40116069     0.04000
C1095       C  0.20814371  0.62617304  0.48604616     0.38600
C1096       C  0.22800659  0.68948586  0.33629420     0.38600
C1097       C  0.27861453  0.69414629  0.38954821     0.37000
C1098       C  0.15894603  0.61919510  0.42975035     0.37000
N1099       N  0.30313515  0.70833465  0.38057533    -0.37800
N1100       N  0.13598398  0.60056339  0.43542476    -0.37800
N1101       N  0.23235702  0.70015477  0.30441092    -0.37200
N1102       N  0.20325369  0.61303071  0.51622184    -0.37200
C1103       C  0.43679237  0.82684557  0.39124251    -0.03900
C1104       C  0.42130495  0.80292041  0.36438497    -0.01000
C1105       C  0.41057568  0.77252429  0.37806826     0.04000
C1106       C  0.41546240  0.76571589  0.41861339    -0.03900
C1107       C  0.43191874  0.78927912  0.44484970    -0.01000
C1108       C  0.44024223  0.81981033  0.43219613     0.04000
C1109       C  0.41431234  0.80948016  0.32334291     0.38600
C1110       C  0.43957554  0.78220849  0.48560945     0.38600
C1111       C  0.94659004  0.84328664  0.46329604     0.37000
C1112       C  0.39351940  0.74849458  0.35073602     0.37000
N1113       N  0.94962858  0.86023048  0.49032040    -0.37800
N1114       N  0.38000217  0.72932102  0.32891952    -0.37800
N1115       N  0.44573564  0.77654944  0.51799424    -0.37200
N1116       N  0.40750108  0.81399950  0.29081987    -0.37200
C1117       C  0.35505031  0.82696571  0.62620596    -0.03900
C1118       C  0.33759941  0.79878207  0.64271525    -0.01000
C1119       C  0.33207601  0.77119871  0.62013650     0.04000
C1120       C  0.34378328  0.77131151  0.58039424    -0.03900
C1121       C  0.36264675  0.79926763  0.56489888    -0.01000
C1122       C  0.36980281  0.82638802  0.58885207     0.04000
C1123       C  0.32555249  0.79824561  0.68342021     0.38600
C1124       C  0.37145951  0.80104096  0.52267198     0.38600
C1125       C  0.39331165  0.85336053  0.57607188     0.37000
C1126       C  0.31404952  0.74272408  0.63783360     0.37000
N1127       N  0.41267384  0.87473840  0.56641504    -0.37800
N1128       N  0.29963698  0.72003893  0.65200429    -0.37800
N1129       N  0.37721216  0.80269662  0.48847288    -0.37200
N1130       N  0.31607003  0.79754208  0.71605673    -0.37200
C1131       C  0.40911991  0.50734552  0.16715794    -0.03900
C1132       C  0.41874549  0.53571845  0.18760361    -0.01000
C1133       C  0.44985659  0.54764431  0.19990918     0.04000
C1134       C  0.46988679  0.52925157  0.19738438    -0.03900
C1135       C  0.46222647  0.50597176  0.16673491    -0.01000
C1136       C  0.43173059  0.49433755  0.15321952     0.04000
C1137       C  0.39718194  0.55283615  0.19484251     0.38600
C1138       C  0.48375791  0.99161567  0.14521177     0.38600
C1139       C  0.42195831  0.96567351  0.12545417     0.37000
C1140       C  0.46299267  0.58030735  0.20373896     0.37000
N1141       N  0.41471640  0.94459869  0.10401392    -0.37800
N1142       N  0.47336319  0.60659630  0.20484094    -0.37800
N1143       N  0.50061102  0.98212994  0.12677397    -0.37200
N1144       N  0.37994963  0.56662224  0.20023663    -0.37200
C1145       C  0.02312037  0.96881412  0.20830011    -0.03900
C1146       C  0.05510024  0.95165148  0.20553316    -0.01000
C1147       C  0.04805977  0.91089655  0.21428320     0.04000
C1148       C  0.00910778  0.88635021  0.22609943    -0.03900
C1149       C  0.47777145  0.90374824  0.23203862    -0.01000
C1150       C  0.48433388  0.94436524  0.22315565     0.04000
C1151       C  0.08617767  0.96946445  0.19852856     0.38600
C1152       C  0.44732324  0.88600574  0.24267211     0.38600
C1153       C  0.45901520  0.95605721  0.23115171     0.37000
C1154       C  0.07385390  0.89908700  0.21116190     0.37000
N1155       N  0.43720402  0.96326088  0.23751601    -0.37800
N1156       N  0.09566262  0.89119395  0.20919302    -0.37800
N1157       N  0.42252281  0.87313358  0.25201340    -0.37200
N1158       N  0.11151966  0.98224753  0.19164779    -0.37200
C1159       C  0.12368772  0.61725397  0.15254490    -0.03900
C1160       C  0.11682494  0.58561096  0.14685640    -0.01000
C1161       C  0.09424303  0.56541040  0.17092618     0.04000
C1162       C  0.08008503  0.57658707  0.20396840    -0.03900
C1163       C  0.08941832  0.60851451  0.21156675    -0.01000
C1164       C  0.11245882  0.62832633  0.18766633     0.04000
C1165       C  0.13006099  0.57407668  0.11233379     0.38600
C1166       C  0.07160160  0.62187168  0.23849495     0.38600
C1167       C  0.12039023  0.66106288  0.19456920     0.37000
C1168       C  0.08280617  0.53428429  0.15620529     0.37000
N1169       N  0.12629503  0.68711834  0.20022917    -0.37800
N1170       N  0.07305766  0.00888726  0.13812980    -0.37800
N1171       N  0.05722425  0.63312278  0.25891683    -0.37200
N1172       N  0.14037193  0.56439423  0.08506005    -0.37200
C1173       C  0.06594879  0.76992389  0.93243954    -0.03900
C1174       C  0.05835495  0.74750178  0.96324221    -0.01000
C1175       C  0.04480262  0.71646134  0.95307842     0.04000
C1176       C  0.03769235  0.70740108  0.91243491    -0.03900
C1177       C  0.04168514  0.73010737  0.88249743    -0.01000
C1178       C  0.05515814  0.76128521  0.89268855     0.04000
C1179       C  0.06653761  0.75546233  0.00530462     0.38600
C1180       C  0.03451456  0.72151026  0.84047136     0.38600
C1181       C  0.05820963  0.78450149  0.86214215     0.37000
C1182       C  0.04064439  0.69367256  0.98441406     0.37000
N1183       N  0.06018534  0.80297816  0.83782013    -0.37800
N1184       N  0.03789953  0.67619149  0.01020692    -0.37800
N1185       N  0.02916392  0.71549156  0.80660501    -0.37200
N1186       N  0.07279747  0.76134989  0.03899482    -0.37200
C1187       C  0.15014782  0.75820085  0.01652622    -0.03900
C1188       C  0.16077261  0.75790755  0.05667242    -0.01000
C1189       C  0.15978276  0.72996109  0.07500441     0.04000
C1190       C  0.14791791  0.70214844  0.05355739    -0.03900
C1191       C  0.14009246  0.70268946  0.01227510    -0.01000
C1192       C  0.14135583  0.73041660  0.99372323     0.04000
C1193       C  0.17201722  0.78615881  0.07976443     0.38600
C1194       C  0.12746754  0.67451489  0.98938363     0.38600
C1195       C  0.13130908  0.72942315  0.95173338     0.37000
C1196       C  0.16819662  0.72995625  0.11727031     0.37000
N1197       N  0.12354184  0.72864711  0.91827262    -0.37800
N1198       N  0.17506886  0.73111724  0.15108148    -0.37800
N1199       N  0.11676668  0.65300905  0.96960619    -0.37200
N1200       N  0.18086385  0.80857471  0.09843132    -0.37200
C1201       C  0.15664586  0.94669901  0.94147034    -0.03900
C1202       C  0.13313453  0.96126853  0.94530720    -0.01000
C1203       C  0.13171961  0.98463442  0.91832627     0.04000
C1204       C  0.15364429  0.99383098  0.88712969    -0.03900
C1205       C  0.17389868  0.97647474  0.87966522    -0.01000
C1206       C  0.17582467  0.95343219  0.90654290     0.04000
C1207       C  0.10974821  0.95229943  0.97649232     0.38600
C1208       C  0.19217243  0.98173464  0.84295917     0.38600
C1209       C  0.19768503  0.93693110  0.89695927     0.37000
C1210       C  0.10765134  0.99897057  0.92381849     0.37000
N1211       N  0.21527897  0.92420128  0.88826192    -0.37800
N1212       N  0.08807570  0.50647929  0.92375119    -0.37800
N1213       N  0.20644557  0.98532590  0.81343091    -0.37200
N1214       N  0.09092913  0.94526894  0.00108818    -0.37200
C1215       C  0.02237826  0.84196179  0.15798710    -0.03900
C1216       C  0.01729704  0.85092858  0.11857912    -0.01000
C1217       C  0.04056174  0.85540736  0.08894862     0.04000
C1218       C  0.06837068  0.84928638  0.09800327    -0.03900
C1219       C  0.07272277  0.83857764  0.13677284    -0.01000
C1220       C  0.04986496  0.83511192  0.16668258     0.04000
C1221       C  0.48791549  0.85485186  0.10835581     0.38600
C1222       C  0.10108511  0.83194357  0.14627937     0.38600
C1223       C  0.05422190  0.82390955  0.20649653     0.37000
C1224       C  0.03577873  0.86593948  0.04895681     0.37000
N1225       N  0.05766104  0.81512512  0.23834695    -0.37800
N1226       N  0.03201919  0.87440548  0.01704090    -0.37800
N1227       N  0.12371793  0.82669009  0.15388165    -0.37200
N1228       N  0.46443037  0.85790748  0.09993320    -0.37200
C1229       C  0.30245072  0.95396563  0.11508382    -0.03900
C1230       C  0.30157121  0.95898434  0.07285685    -0.01000
C1231       C  0.27334912  0.95079699  0.05206772     0.04000
C1232       C  0.24670140  0.93319364  0.07148009    -0.03900
C1233       C  0.24744817  0.92712908  0.11319659    -0.01000
C1234       C  0.27487962  0.93833467  0.13521604     0.04000
C1235       C  0.32939358  0.96795673  0.04912847     0.38600
C1236       C  0.22025236  0.90807188  0.13320476     0.38600
C1237       C  0.27469384  0.93239025  0.17837855     0.37000
C1238       C  0.27156220  0.96071388  0.01080145     0.37000
N1239       N  0.27584471  0.42963056  0.21070538    -0.37800
N1240       N  0.26997965  0.96880001  0.97800083    -0.37800
N1241       N  0.19868990  0.89272514  0.14914584    -0.37200
N1242       N  0.35076550  0.97372738  0.02842286    -0.37200
C1243       C  0.24684564  0.85191048  0.90385540    -0.03900
C1244       C  0.24449766  0.82944321  0.87282439    -0.01000
C1245       C  0.27101088  0.82552340  0.85451076     0.04000
C1246       C  0.29995136  0.84627669  0.86293701    -0.03900
C1247       C  0.30200618  0.87044115  0.89095234    -0.01000
C1248       C  0.27614951  0.87159196  0.91364058     0.04000
C1249       C  0.21483464  0.81031150  0.85888265     0.38600
C1250       C  0.32985756  0.89570725  0.89442615     0.38600
C1251       C  0.28065915  0.89114239  0.94919824     0.37000
C1252       C  0.26837578  0.79987297  0.82703486     0.37000
N1253       N  0.28523031  0.90600768  0.97835076    -0.37800
N1254       N  0.26628359  0.77941048  0.80518418    -0.37800
N1255       N  0.35155558  0.91649641  0.89699995    -0.37200
N1256       N  0.19123824  0.79504266  0.84772094    -0.37200
C1257       C  0.25739488  0.58838295  0.93407489    -0.03900
C1258       C  0.26422524  0.58077346  0.89453142    -0.01000
C1259       C  0.24077147  0.56260961  0.86955988     0.04000
C1260       C  0.20999291  0.55364496  0.88348608    -0.03900
C1261       C  0.20397492  0.55953443  0.92444776    -0.01000
C1262       C  0.22818418  0.57484938  0.95032210     0.04000
C1263       C  0.29524734  0.59267639  0.87929629     0.38600
C1264       C  0.17305484  0.55516226  0.93880907     0.38600
C1265       C  0.22265075  0.57848228  0.99316181     0.37000
C1266       C  0.24824140  0.55520200  0.82868150     0.37000
N1267       N  0.21816337  0.58096176  0.02738608    -0.37800
N1268       N  0.25457015  0.54968681  0.79607079    -0.37800
N1269       N  0.14906636  0.55343508  0.95176280    -0.37200
N1270       N  0.32006935  0.60219893  0.86744934    -0.37200
C1271       C  0.23696715  0.66081654  0.05258406    -0.03900
C1272       C  0.23412836  0.66928949  0.09353680    -0.01000
C1273       C  0.20460340  0.66659414  0.11055037     0.04000
C1274       C  0.17770758  0.65411442  0.08732879    -0.03900
C1275       C  0.18079918  0.64239642  0.04844625    -0.01000
C1276       C  0.20974224  0.64837165  0.02987900     0.04000
C1277       C  0.26156352  0.68295333  0.11699727     0.38600
C1278       C  0.15398097  0.62280969  0.02822795     0.38600
C1279       C  0.21093236  0.64330334  0.98649789     0.37000
C1280       C  0.20190090  0.67563012  0.15217481     0.37000
N1281       N  0.21117972  0.63984198  0.95171195    -0.37800
N1282       N  0.20014503  0.68254926  0.18574131    -0.37800
N1283       N  0.13273582  0.60615825  0.01286871    -0.37200
N1284       N  0.28356128  0.69412717  0.13552221    -0.37200
C1285       C  0.35087321  0.77141594  0.92977546    -0.03900
C1286       C  0.35539705  0.80058433  0.94770665    -0.01000
C1287       C  0.36019297  0.82700201  0.92326046     0.04000
C1288       C  0.35959325  0.82465179  0.88042931    -0.03900
C1289       C  0.35720007  0.79536892  0.86280054    -0.01000
C1290       C  0.35217078  0.76912368  0.88724717     0.04000
C1291       C  0.35370915  0.80323904  0.99137486     0.38600
C1292       C  0.35978207  0.79150461  0.81943716     0.38600
C1293       C  0.34677733  0.73919498  0.86835865     0.37000
C1294       C  0.36667375  0.85673239  0.94247249     0.37000
N1295       N  0.34212129  0.71529616  0.85336376    -0.37800
N1296       N  0.37251501  0.88020069  0.95889446    -0.37800
N1297       N  0.36210633  0.78748316  0.78502524    -0.37200
N1298       N  0.35204060  0.80539922  0.02621923    -0.37200
C1299       C  0.43359859  0.66884899  0.96603566    -0.03900
C1300       C  0.43762544  0.67953957  0.92532908    -0.01000
C1301       C  0.45905354  0.67180464  0.89915532     0.04000
C1302       C  0.47780804  0.65465820  0.91323556    -0.03900
C1303       C  0.47320874  0.64291176  0.95281376    -0.01000
C1304       C  0.45169871  0.64994397  0.97903706     0.04000
C1305       C  0.42106845  0.69972410  0.91023943     0.38600
C1306       C  0.99127087  0.62377122  0.96714341     0.38600
C1307       C  0.44941136  0.63783658  0.01983190     0.37000
C1308       C  0.46124961  0.68056189  0.85700601     0.37000
N1309       N  0.44794875  0.62819722  0.05229567    -0.37800
N1310       N  0.46229483  0.68691080  0.82308574    -0.37800
N1311       N  0.00526929  0.60822459  0.97878983    -0.37200
N1312       N  0.40827470  0.71612037  0.89788014    -0.37200
C1313       C  0.42345483  0.75433307  0.09676098    -0.03900
C1314       C  0.45413980  0.75481807  0.10310894    -0.01000
C1315       C  0.47141766  0.77277003  0.13468185     0.04000
C1316       C  0.45875626  0.79202529  0.15817224    -0.03900
C1317       C  0.42875388  0.79326968  0.14919194    -0.01000
C1318       C  0.41100140  0.77398927  0.11921255     0.04000
C1319       C  0.46739924  0.73563682  0.07813417     0.38600
C1320       C  0.41526156  0.81350007  0.17145749     0.38600
C1321       C  0.37901785  0.77240773  0.11382387     0.37000
C1322       C  0.00084601  0.76892938  0.14502308     0.37000
N1323       N  0.35342212  0.77074969  0.10980169    -0.37800
N1324       N  0.02399005  0.76481179  0.15276985    -0.37800
N1325       N  0.40333451  0.82906338  0.18842001    -0.37200
N1326       N  0.47798854  0.72049279  0.05802977    -0.37200
C1327       C  0.34222673  0.57078041  0.08081138    -0.03900
C1328       C  0.36490521  0.55745135  0.06678446    -0.01000
C1329       C  0.37058823  0.53284710  0.08739025     0.04000
C1330       C  0.35168638  0.51893657  0.11974229    -0.03900
C1331       C  0.32819151  0.53120690  0.13288116    -0.01000
C1332       C  0.32374341  0.55724758  0.11401693     0.04000
C1333       C  0.38200634  0.56835003  0.03003364     0.38600
C1334       C  0.30979356  0.51794866  0.16759690     0.38600
C1335       C  0.30115395  0.57078447  0.13015273     0.37000
C1336       C  0.39585872  0.52185976  0.07462943     0.37000
N1337       N  0.28310501  0.58145673  0.14338004    -0.37800
N1338       N  0.41623052  0.51385284  0.06317861    -0.37800
N1339       N  0.29525795  0.50737930  0.19546143    -0.37200
N1340       N  0.39551816  0.57662212  0.00054369    -0.37200
C1341       C  0.43998957  0.94683552  0.79394017    -0.03900
C1342       C  0.40841069  0.94211159  0.78731883    -0.01000
C1343       C  0.38657794  0.91679817  0.80430588     0.04000
C1344       C  0.39600095  0.89328430  0.82325799    -0.03900
C1345       C  0.42692249  0.89998443  0.83480978    -0.01000
C1346       C  0.44867640  0.92744782  0.82180698     0.04000
C1347       C  0.39791250  0.96255469  0.76183699     0.38600
C1348       C  0.43620577  0.87841272  0.85962867     0.38600
C1349       C  0.47997017  0.93477078  0.83588329     0.37000
C1350       C  0.35435459  0.91492024  0.80129366     0.37000
N1351       N  0.50469793  0.94028549  0.84821369    -0.37800
N1352       N  0.32882601  0.91399021  0.79873646    -0.37800
N1353       N  0.44327873  0.86113447  0.87981319    -0.37200
N1354       N  0.38839042  0.97777146  0.74105952    -0.37200
C1355       C  0.98579410  0.55494185  0.79245481    -0.03900
C1356       C  0.46825025  0.55302421  0.82854145    -0.01000
C1357       C  0.97418040  0.57799810  0.85643316     0.04000
C1358       C  0.99678398  0.60570593  0.84794007    -0.03900
C1359       C  0.01122276  0.60897641  0.80962847    -0.01000
C1360       C  0.00710214  0.58366508  0.78314100     0.04000
C1361       C  0.44526052  0.52474249  0.83865272     0.38600
C1362       C  0.03315904  0.63801087  0.79915683     0.38600
C1363       C  0.02723574  0.58765582  0.74835826     0.37000
C1364       C  0.45811089  0.57419328  0.89477721     0.37000
N1365       N  0.04389969  0.59299295  0.72110832    -0.37800
N1366       N  0.44463368  0.57013123  0.92496154    -0.37800
N1367       N  0.05103623  0.66084322  0.79086776    -0.37200
N1368       N  0.42698306  0.50236955  0.84765190    -0.37200
C1369       C  0.04672440  0.49449254  0.79374047    -0.03900
C1370       C  0.06377918  0.97633969  0.78903967    -0.01000
C1371       C  0.09403826  0.98364507  0.80409348     0.04000
C1372       C  0.10774276  0.50757121  0.82174384    -0.03900
C1373       C  0.08894280  0.52494046  0.83576214    -0.01000
C1374       C  0.05792030  0.51680558  0.82464527     0.04000
C1375       C  0.05290956  0.94967724  0.76312629     0.38600
C1376       C  0.10223747  0.55302214  0.85882442     0.38600
C1377       C  0.03899072  0.53280551  0.84472680     0.37000
C1378       C  0.11414806  0.96585437  0.79176258     0.37000
N1379       N  0.02540379  0.54570290  0.86381390    -0.37800
N1380       N  0.13020367  0.95170577  0.78181608    -0.37800
N1381       N  0.11281717  0.57542591  0.87693090    -0.37200
N1382       N  0.04593800  0.92831789  0.74222087    -0.37200
C1383       C  0.44579125  0.94259554  0.70235618    -0.03900
C1384       C  0.42655208  0.94789558  0.67170522    -0.01000
C1385       C  0.40316835  0.92330577  0.65532340     0.04000
C1386       C  0.39909364  0.89317060  0.66924901    -0.03900
C1387       C  0.42170374  0.88735521  0.69362375    -0.01000
C1388       C  0.44495097  0.91193540  0.71045133     0.04000
C1389       C  0.42812381  0.97873267  0.65992075     0.38600
C1390       C  0.41921011  0.85607430  0.70423670     0.38600
C1391       C  0.46741583  0.90509490  0.73639849     0.37000
C1392       C  0.38017719  0.93014946  0.62996181     0.37000
N1393       N  0.48444184  0.89791951  0.75702861    -0.37800
N1394       N  0.36210907  0.93717063  0.61104451    -0.37800
N1395       N  0.41709837  0.83106790  0.71253308    -0.37200
N1396       N  0.42497598  0.50173092  0.65392158    -0.37200
C1397       C  0.47953257  0.60993424  0.66643166    -0.03900
C1398       C  0.49585841  0.59146459  0.64791126    -0.01000
C1399       C  0.49444277  0.56216767  0.66364308     0.04000
C1400       C  0.47627377  0.55051094  0.69838167    -0.03900
C1401       C  0.95525559  0.56639050  0.71083530    -0.01000
C1402       C  0.95797199  0.59626568  0.69668514     0.04000
C1403       C  0.51719760  0.60374999  0.61553937     0.38600
C1404       C  0.93107655  0.55273479  0.73932849     0.38600
C1405       C  0.94013867  0.61380750  0.71632448     0.37000
C1406       C  0.51446815  0.54626494  0.64579021     0.37000
N1407       N  0.92565656  0.62695053  0.73330777    -0.37800
N1408       N  0.53080451  0.53475884  0.62973225    -0.37800
N1409       N  0.91146190  0.54305796  0.76216886    -0.37200
N1410       N  0.53473394  0.61215929  0.58975947    -0.37200
C1411       C  0.04672446  0.49736576  0.69959942    -0.03900
C1412       C  0.04630486  0.97877324  0.66972146    -0.01000
C1413       C  0.07098628  0.98433317  0.64228509     0.04000
C1414       C  0.09637007  0.50479947  0.64410694    -0.03900
C1415       C  0.09883850  0.52504322  0.67734282    -0.01000
C1416       C  0.07434845  0.52146217  0.70480839     0.04000
C1417       C  0.01958264  0.95315219  0.66144177     0.38600
C1418       C  0.12403122  0.55309092  0.67912479     0.38600
C1419       C  0.07764323  0.54449633  0.73628991     0.37000
C1420       C  0.06629098  0.97029876  0.60230938     0.37000
N1421       N  0.08237564  0.56358875  0.76079437    -0.37800
N1422       N  0.06249636  0.96002332  0.56992397    -0.37800
N1423       N  0.14262715  0.57650724  0.68028281    -0.37200
N1424       N  0.99922993  0.93216197  0.65295177    -0.37200
C1425       C  0.98811085  0.49545029  0.70788782     0.46900
H1426       H  0.98739790  0.49366516  0.67443644    -0.02100
C1427       C  0.48744197  0.99816607  0.78745351     0.47000
H1428       H  0.48608231  0.99821149  0.82088172    -0.02100
C1429       C  0.51927480  0.49523876  0.72624497    -0.15800
C1430       C  0.98217225  0.02573331  0.72501144    -0.15600
C1431       C  0.96455466  0.46794848  0.72767383    -0.15900
C1432       C  0.51942389  0.49519109  0.76824665    -0.15900
C1433       C  0.98276239  0.02719597  0.76716921    -0.15500
C1434       C  0.96432249  0.46949942  0.76933868    -0.15800
O1435       O  0.86882394  0.12010032  0.06265258    -0.79500
O1436       O  0.86598575  0.23297195  0.97011480    -0.64100
O1437       O  0.84974946  0.17215000  0.05262608    -1.10700
C1438       C  0.77901104  0.11431153  0.95718103     1.07400
O1439       O  0.81632958  0.22686788  0.96188357    -0.77300
O1440       O  0.77259532  0.18132386  0.00147506    -0.64900
Ni1441     Ni  0.88282204  0.16215491  0.07801305     1.34900
C1442       C  0.76749466  0.16448462  0.03266991     0.86200
O1443       O  0.88974677  0.23194992  0.04448246    -0.77900
O1444       O  0.89987093  0.20334952  0.09468268    -0.88200
C1445       C  0.84431335  0.24209451  0.95612817     0.85700
O1446       O  0.91078911  0.16773183  0.03385880    -0.66400
O1447       O  0.77818832  0.14018449  0.94383597    -0.85700
C1448       C  0.91059795  0.17576897  0.99733795     0.86600
C1449       C  0.90318429  0.22873818  0.07735550     1.08100
H1450       H  0.84088440  0.16552346  0.95914728     0.39900
O1451       O  0.83030904  0.17239006  0.98098486    -1.08300
O1452       O  0.78554561  0.14927371  0.04423370    -0.65000
Ni1453     Ni  0.82212101  0.14091837  0.02082136     1.26300
O1454       O  0.89125767  0.18881517  0.98510001    -0.65200
O1455       O  0.79575669  0.11088924  0.98638649    -0.77500
C1456       C  0.84265160  0.10156612  0.06890165     0.86000
O1457       O  0.81863364  0.10932583  0.06097202    -0.64700
Ni1458     Ni  0.79811183  0.18289611  0.95496868     1.27400
Ni1459     Ni  0.85969390  0.20276316  0.01173277     1.26100
H1460       H  0.83829549  0.17876774  0.07355138     0.40500
N1461       N  0.85756512  0.34931933  0.85747142    -0.02000
C1462       C  0.87679293  0.36048367  0.82566913     0.00600
C1463       C  0.86056842  0.35280169  0.78971026    -0.22300
C1464       C  0.83019722  0.34493131  0.79955821    -0.22500
C1465       C  0.82923375  0.34485496  0.84131756     0.00500
H1466       H  0.86959234  0.35965591  0.76000299     0.14200
H1467       H  0.81145739  0.34326711  0.77882041     0.14300
O1468       O  0.69791232  0.32643802  0.92860608    -0.79500
O1469       O  0.60193915  0.33520565  0.05097004    -0.64100
O1470       O  0.65272103  0.35072321  0.95721952    -1.10700
C1471       C  0.71997923  0.41818807  0.04600916     1.07400
O1472       O  0.60832672  0.38506757  0.05651885    -0.77300
O1473       O  0.64708654  0.42200745  0.00284923    -0.64900
Ni1474     Ni  0.65487433  0.31907458  0.92141596     1.34900
C1475       C  0.66294150  0.42511558  0.97062319     0.86200
O1476       O  0.59345078  0.31143729  0.97564591    -0.77900
O1477       O  0.61133705  0.30761676  0.91326374    -0.88200
C1478       C  0.59473495  0.35762595  0.06671337     0.85700
O1479       O  0.65039286  0.28854397  0.96030692    -0.66400
O1480       O  0.69568608  0.42524690  0.05535968    -0.85700
C1481       C  0.64768459  0.28688641  0.99834802     0.86600
C1482       C  0.59089482  0.29888334  0.94059258     1.08100
H1483       H  0.66666465  0.35856448  0.05208952     0.39900
O1484       O  0.65975064  0.36895179  0.03037238    -1.08300
O1485       O  0.68252041  0.41069765  0.96520432    -0.65000
Ni1486     Ni  0.68808724  0.37392916  0.98699588     1.26300
O1487       O  0.64182774  0.30785321  0.01984390    -0.65200
O1488       O  0.72083208  0.39747187  0.02015020    -0.77500
C1489       C  0.71924000  0.35120649  0.92633351     0.86000
O1490       O  0.71658137  0.37543883  0.94319321    -0.64700
Ni1491     Ni  0.65225229  0.40412861  0.05342472     1.27400
Ni1492     Ni  0.62644940  0.34098938  0.00315267     1.26100
H1493       H  0.64524564  0.36450265  0.94090359     0.40500
N1494       N  0.64749554  0.15664444  0.09852897    -0.02000
C1495       C  0.62350711  0.13395736  0.11382103     0.00600
C1496       C  0.59570698  0.13637642  0.10023461    -0.22300
C1497       C  0.60188760  0.16150887  0.07687395    -0.22500
C1498       C  0.63325551  0.17329107  0.07592212     0.00500
H1499       H  0.57313006  0.12273180  0.10957562     0.14200
H1500       H  0.58532102  0.17085810  0.06285145     0.14300
N1501       N  0.65682240  0.02115450  0.86358941    -0.02000
C1502       C  0.63895393  0.02421086  0.83208973     0.00600
C1503       C  0.65353771  0.04926760  0.80909573    -0.22300
C1504       C  0.68145084  0.06227105  0.82664659    -0.22500
C1505       C  0.68311084  0.04463467  0.85975239     0.00500
H1506       H  0.64394465  0.05829684  0.78393592     0.14200
H1507       H  0.69825407  0.08311168  0.81726977     0.14300
N1508       N  0.50022954  0.33928957  0.18792398    -0.02000
C1509       C  0.50191116  0.35503728  0.22346384     0.00600
C1510       C  0.98093874  0.33771594  0.25039777    -0.22300
C1511       C  0.96566920  0.31095243  0.23075124    -0.22500
C1512       C  0.97743612  0.31281139  0.19201391     0.00500
H1513       H  0.97458443  0.34544169  0.27931980     0.14200
H1514       H  0.94584393  0.29358197  0.24186030     0.14300
N1515       N  0.50436864  0.15436988  0.89134874    -0.02000
C1516       C  0.51084991  0.12809461  0.88026805     0.00600
C1517       C  0.54183906  0.13169163  0.88597939    -0.22300
C1518       C  0.55520171  0.16126324  0.89802024    -0.22500
C1519       C  0.53199761  0.17471332  0.90052816     0.00500
H1520       H  0.55406465  0.11568631  0.87696845     0.14200
H1521       H  0.57935381  0.17208971  0.90319535     0.14300
N1522       N  0.85378041  0.99005493  0.13907509    -0.02000
C1523       C  0.87589701  0.98685417  0.16490754     0.00600
C1524       C  0.86812548  0.45900675  0.17967977    -0.22300
C1525       C  0.84148632  0.44307319  0.16104961    -0.22500
C1526       C  0.83327448  0.46324959  0.13591984     0.00500
H1527       H  0.88163645  0.44936693  0.19941728     0.14200
H1528       H  0.82952845  0.41911814  0.16510811     0.14300
O1529       O  0.80846339  0.22454509  0.54899537    -0.79500
O1530       O  0.82362696  0.11194715  0.44411641    -0.64100
O1531       O  0.82743898  0.17259848  0.52618475    -1.10700
C1532       C  0.89771576  0.23610691  0.43371449     1.07400
O1533       O  0.87404771  0.12621565  0.43882338    -0.77300
O1534       O  0.91164599  0.17454921  0.47431001    -0.64900
Ni1535     Ni  0.79137335  0.18003470  0.54714162     1.34900
C1536       C  0.90948595  0.18224457  0.51094696     0.86200
O1537       O  0.79877040  0.11016896  0.51781386    -0.77900
O1538       O  0.77152534  0.13675678  0.55068499    -0.88200
C1539       C  0.84823414  0.10676393  0.43263171     0.85700
O1540       O  0.77164910  0.18091042  0.49594491    -0.66400
O1541       O  0.89923114  0.21195878  0.41535350    -0.85700
C1542       C  0.76887230  0.16276825  0.46564560     0.86600
C1543       C  0.77689423  0.11174905  0.54080443     1.08100
H1544       H  0.83726942  0.18018628  0.43387754     0.39900
O1545       O  0.84942519  0.17474849  0.45469478    -1.08300
O1546       O  0.88863914  0.19382683  0.52244358    -0.65000
Ni1547     Ni  0.85522757  0.20460849  0.49700655     1.26300
O1548       O  0.78692936  0.14646594  0.45940434    -0.65200
O1549       O  0.88272881  0.23597903  0.46635435    -0.77500
C1550       C  0.83604248  0.24119972  0.55490319     0.86000
O1551       O  0.85860960  0.23377655  0.54012162    -0.64700
Ni1552     Ni  0.88505429  0.16929922  0.42853294     1.27400
Ni1553     Ni  0.82380285  0.14186374  0.48523435     1.26100
H1554       H  0.83779995  0.16712886  0.54899006     0.40500
N1555       N  0.85004571  0.35408857  0.64298152    -0.02000
C1556       C  0.86545017  0.37038765  0.67511169     0.00600
C1557       C  0.84563401  0.38105968  0.69905910    -0.22300
C1558       C  0.81818671  0.37370209  0.67979386    -0.22500
C1559       C  0.82176259  0.35772740  0.64556919     0.00500
H1560       H  0.85207756  0.39751013  0.72366973     0.14200
H1561       H  0.79851836  0.38103101  0.68822388     0.14300
O1562       O  0.60377414  0.38543389  0.45371866    -0.79500
O1563       O  0.72197696  0.36716429  0.52735197    -0.64100
O1564       O  0.65506886  0.36682185  0.46060988    -1.10700
C1565       C  0.60202613  0.29067059  0.55780784     1.07400
O1566       O  0.70492613  0.31716385  0.52396345    -0.77300
O1567       O  0.65067622  0.27936922  0.50860342    -0.64900
Ni1568     Ni  0.64714921  0.40356528  0.44683210     1.34900
C1569       C  0.64575675  0.28373216  0.47187828     0.86200
O1570       O  0.71794004  0.39513098  0.45821600    -0.77900
O1571       O  0.69018957  0.42487529  0.43670551    -0.88200
C1572       C  0.72523882  0.34120918  0.53420183     0.85700
O1573       O  0.64903462  0.41871520  0.50078936    -0.66400
O1574       O  0.62766105  0.29802631  0.57615566    -0.85700
C1575       C  0.66808516  0.41921125  0.52875324     0.86600
C1576       C  0.71544692  0.41815987  0.43882548     1.08100
H1577       H  0.65478472  0.35474622  0.55105196     0.39900
O1578       O  0.65885222  0.34292391  0.52841673    -1.08300
O1579       O  0.63792237  0.30661152  0.46004805    -0.65000
Ni1580     Ni  0.62584381  0.33647111  0.49224437     1.26300
O1581       O  0.68732086  0.40397440  0.52701645    -0.65200
O1582       O  0.59788352  0.30357936  0.52455751    -0.77500
C1583       C  0.58584756  0.35845763  0.44813963     0.86000
O1584       O  0.59365808  0.33452170  0.45518292    -0.64700
Ni1585     Ni  0.66653921  0.30825269  0.55052337     1.27400
Ni1586     Ni  0.68913716  0.36909088  0.49406894     1.26100
H1587       H  0.65847884  0.35774250  0.43510916     0.40500
N1588       N  0.65087127  0.01027325  0.61653976    -0.02000
C1589       C  0.62278247  0.01540766  0.61956975     0.00600
C1590       C  0.62110365  0.03924356  0.59544474    -0.22300
C1591       C  0.64872050  0.05001746  0.57707931    -0.22500
C1592       C  0.66647101  0.03240086  0.59034834     0.00500
H1593       H  0.60247709  0.04934683  0.59416599     0.14200
H1594       H  0.65590428  0.06998145  0.55814741     0.14300
N1595       N  0.99567036  0.16339817  0.63024620    -0.02000
C1596       C  0.49146072  0.14428756  0.66299598     0.00600
C1597       C  0.50791435  0.15984084  0.69562091    -0.22300
C1598       C  0.52311444  0.18877720  0.68315476    -0.22500
C1599       C  0.51548145  0.19048917  0.64300579     0.00500
H1600       H  0.51032179  0.15020053  0.72458415     0.14200
H1601       H  0.53997271  0.20588878  0.70047072     0.14300
N1602       N  0.48060270  0.37361434  0.37253347    -0.02000
C1603       C  0.48479450  0.39990788  0.35159572     0.00600
C1604       C  0.95660032  0.40195439  0.33913553    -0.22300
C1605       C  0.93467255  0.37629079  0.35295463    -0.22500
C1606       C  0.95007053  0.35912460  0.37344548     0.00500
H1607       H  0.95250803  0.41930803  0.31990412     0.14200
H1608       H  0.91031705  0.37024267  0.34713811     0.14300
N1609       N  0.66477683  0.16388322  0.36677513    -0.02000
C1610       C  0.65190051  0.14961720  0.33168590     0.00600
C1611       C  0.64823217  0.17089616  0.30425722    -0.22300
C1612       C  0.65578741  0.19844961  0.32380243    -0.22500
C1613       C  0.66491122  0.19342358  0.36215721     0.00500
H1614       H  0.63567315  0.16589837  0.27606514     0.14200
H1615       H  0.65144395  0.21900775  0.31301467     0.14300
N1616       N  0.84809676  0.99748388  0.34375176    -0.02000
C1617       C  0.86824655  0.99258986  0.31551348     0.00600
C1618       C  0.85573379  0.46774537  0.29401943    -0.22300
C1619       C  0.82716692  0.45481111  0.31010317    -0.22500
C1620       C  0.82336692  0.47406733  0.34080443     0.00500
H1621       H  0.86678337  0.45730512  0.27144044     0.14200
H1622       H  0.81143115  0.43291102  0.30166862     0.14300
C1623       C  0.52751589  0.02825381  0.20706747     0.46900
H1624       H  0.52859916  0.02982871  0.17383572    -0.02100
C1625       C  0.52626494  0.02544134  0.28553801     0.47000
H1626       H  0.52577324  0.02458727  0.31901881    -0.02100
C1627       C  0.55400623  0.05311492  0.22698579    -0.15800
C1628       C  0.99705882  0.03113846  0.22424786    -0.15600
C1629       C  0.53138803  0.50086630  0.22615186    -0.15900
C1630       C  0.55356990  0.05171719  0.26898040    -0.15900
C1631       C  0.99585886  0.02964793  0.26680522    -0.15500
C1632       C  0.53123831  0.49834094  0.26604460    -0.15800
C1633       C  0.90255748  0.00677752  0.31392855    -0.03900
C1634       C  0.91694063  0.03681554  0.30072580    -0.01000
C1635       C  0.94889123  0.04620121  0.29150569     0.04000
C1636       C  0.96603903  0.02494529  0.29143414    -0.03900
C1637       C  0.95381632  0.50060058  0.31577165    -0.01000
C1638       C  0.92215972  0.49080812  0.32474712     0.04000
C1639       C  0.89936616  0.05824070  0.29719644     0.38600
C1640       C  0.97293669  0.48633578  0.33735222     0.38600
C1641       C  0.90924595  0.46246269  0.34648329     0.37000
C1642       C  0.96504919  0.07840370  0.29002826     0.37000
N1643       N  0.89894617  0.44016836  0.36428349    -0.37800
N1644       N  0.97765171  0.10432858  0.29038240    -0.37800
N1645       N  0.98609092  0.47531427  0.35922362    -0.37200
N1646       N  0.88574841  0.07580440  0.29453568    -0.37200
C1647       C  0.57895719  0.07118270  0.29579630    -0.03900
C1648       C  0.57272569  0.09178263  0.32419922    -0.01000
C1649       C  0.59661396  0.11726915  0.33793300     0.04000
C1650       C  0.62776353  0.11931083  0.32975216    -0.03900
C1651       C  0.63408850  0.09508900  0.30855916    -0.01000
C1652       C  0.60996873  0.07176488  0.29042246     0.04000
C1653       C  0.54164508  0.08812951  0.33753165     0.38600
C1654       C  0.66572144  0.09558717  0.30299851     0.38600
C1655       C  0.61736882  0.04810313  0.26707776     0.37000
C1656       C  0.58829098  0.14332152  0.35404188     0.37000
N1657       N  0.62438791  0.02943341  0.24915530    -0.37800
N1658       N  0.58058091  0.16397229  0.36513096    -0.37800
N1659       N  0.69107617  0.09622080  0.29905660    -0.37200
N1660       N  0.51726521  0.08524951  0.34991789    -0.37200
C1661       C  0.53297029  0.46779600  0.28389408    -0.03900
C1662       C  0.52391340  0.43642659  0.26046250    -0.01000
C1663       C  0.52215352  0.41383853  0.29428089     0.04000
C1664       C  0.51431758  0.41921775  0.33406286    -0.03900
C1665       C  0.53213081  0.44665071  0.35084917    -0.01000
C1666       C  0.54434026  0.47048915  0.32418897     0.04000
C1667       C  0.51115995  0.42489098  0.17952227     0.38600
C1668       C  0.53820481  0.45147864  0.39369363     0.38600
C1669       C  0.56667196  0.49806157  0.33896386     0.37000
C1670       C  0.54362701  0.39589109  0.29660231     0.37000
N1671       N  0.58466255  0.51936447  0.35217140    -0.37800
N1672       N  0.56071766  0.38174158  0.29974335    -0.37800
N1673       N  0.04523418  0.45792015  0.42704133    -0.37200
N1674       N  0.50587863  0.42068411  0.14518848    -0.37200
C1675       C  0.57776841  0.26393365  0.57508340    -0.03900
C1676       C  0.54720813  0.26419673  0.58122822    -0.01000
C1677       C  0.52617187  0.24003064  0.60252078     0.04000
C1678       C  0.53503993  0.21451477  0.61574926    -0.03900
C1679       C  0.56492625  0.21338145  0.60704695    -0.01000
C1680       C  0.58623935  0.23796031  0.58783672     0.04000
C1681       C  0.53788208  0.29002990  0.56743200     0.38600
C1682       C  0.57427488  0.18703726  0.61911838     0.38600
C1683       C  0.61714651  0.23607858  0.58149067     0.37000
C1684       C  0.49609764  0.24245043  0.61247604     0.37000
N1685       N  0.64165337  0.23416586  0.57696981    -0.37800
N1686       N  0.97232778  0.24519309  0.62028279    -0.37800
N1687       N  0.58198177  0.16623851  0.62877599    -0.37200
N1688       N  0.53059531  0.31067819  0.55611518    -0.37200
C1689       C  0.65028509  0.26101054  0.44267628    -0.03900
C1690       C  0.67459742  0.26919248  0.41461713    -0.01000
C1691       C  0.68207466  0.24635963  0.39138468     0.04000
C1692       C  0.66498127  0.21533690  0.39568753    -0.03900
C1693       C  0.64214438  0.20726866  0.42598390    -0.01000
C1694       C  0.63413559  0.23008890  0.44823719     0.04000
C1695       C  0.69197717  0.30104462  0.40978223     0.38600
C1696       C  0.62577103  0.17575114  0.43418244     0.38600
C1697       C  0.60788359  0.22179474  0.47524930     0.37000
C1698       C  0.70789394  0.25473502  0.36379464     0.37000
N1699       N  0.58654241  0.21489635  0.49597635    -0.37800
N1700       N  0.72883098  0.26179040  0.34235556    -0.37800
N1701       N  0.61153609  0.15124223  0.44256683    -0.37200
N1702       N  0.70571454  0.32645015  0.40574322    -0.37200
C1703       C  0.66659050  0.43798324  0.56507106    -0.03900
C1704       C  0.63893961  0.43212084  0.58697128    -0.01000
C1705       C  0.63493140  0.45402869  0.61523509     0.04000
C1706       C  0.65714310  0.48285389  0.61809734    -0.03900
C1707       C  0.68725021  0.48245420  0.60844590    -0.01000
C1708       C  0.69183802  0.46199835  0.57852225     0.04000
C1709       C  0.61571151  0.40291453  0.58211666     0.38600
C1710       C  0.71403617  0.99673774  0.64163193     0.38600
C1711       C  0.72194387  0.46664237  0.56109003     0.37000
C1712       C  0.61302306  0.44430139  0.64750239     0.37000
N1713       N  0.74615891  0.47107577  0.54733765    -0.37800
N1714       N  0.59595658  0.43544958  0.67370275    -0.37800
N1715       N  0.73476528  0.00842428  0.66217634    -0.37200
N1716       N  0.59761766  0.37932544  0.57825017    -0.37200
C1717       C  0.79600538  0.46577739  0.36856544    -0.03900
C1718       C  0.79901912  0.45782480  0.40934948    -0.01000
C1719       C  0.77275952  0.44410254  0.43314497     0.04000
C1720       C  0.74297565  0.43734572  0.41630011    -0.03900
C1721       C  0.73993730  0.44641153  0.37602253    -0.01000
C1722       C  0.76616355  0.46003126  0.35227819     0.04000
C1723       C  0.82899467  0.46021101  0.42580657     0.38600
C1724       C  0.70982286  0.43971973  0.35762188     0.38600
C1725       C  0.76066469  0.96481721  0.31123045     0.37000
C1726       C  0.77664409  0.43635775  0.47491121     0.37000
N1727       N  0.75636915  0.96845241  0.27738394    -0.37800
N1728       N  0.78000787  0.43018920  0.50813881    -0.37800
N1729       N  0.68580961  0.43437125  0.34297345    -0.37200
N1730       N  0.85239126  0.46097940  0.43980795    -0.37200
C1731       C  0.50367336  0.36538306  0.39518686    -0.03900
C1732       C  0.51437164  0.38108807  0.43155816    -0.01000
C1733       C  0.53943144  0.37606119  0.45147923     0.04000
C1734       C  0.55461599  0.35617098  0.43424915    -0.03900
C1735       C  0.54163280  0.33774842  0.40056802    -0.01000
C1736       C  0.51545355  0.34176129  0.38181084     0.04000
C1737       C  0.49928136  0.40221590  0.44855106     0.38600
C1738       C  0.55601591  0.31596075  0.38387906     0.38600
C1739       C  0.50032705  0.32103217  0.34985974     0.37000
C1740       C  0.54971810  0.39130537  0.48975836     0.37000
N1741       N  0.48824665  0.30314960  0.32560616    -0.37800
N1742       N  0.55816307  0.40307092  0.52047102    -0.37800
N1743       N  0.56755136  0.29861851  0.37054035    -0.37200
N1744       N  0.48737038  0.41919193  0.46215640    -0.37200
C1745       C  0.75035580  0.33886654  0.55904974    -0.03900
C1746       C  0.74406814  0.32714333  0.59839049    -0.01000
C1747       C  0.76805051  0.33117257  0.62600610     0.04000
C1748       C  0.79804718  0.34773736  0.61439197    -0.03900
C1749       C  0.80430939  0.35776856  0.57394444    -0.01000
C1750       C  0.78039723  0.35213813  0.54589016     0.04000
C1751       C  0.71275150  0.31305238  0.61159136     0.38600
C1752       C  0.83405862  0.37702942  0.56149301     0.38600
C1753       C  0.78641499  0.36064212  0.50368005     0.37000
C1754       C  0.76124263  0.31989015  0.66696076     0.37000
N1755       N  0.79119666  0.36707410  0.46997695    -0.37800
N1756       N  0.75506977  0.31096050  0.69948440    -0.37800
N1757       N  0.85683047  0.39303888  0.54927877    -0.37200
N1758       N  0.68796167  0.30191916  0.62269038    -0.37200
C1759       C  0.93175861  0.17651959  0.54175814    -0.03900
C1760       C  0.95915315  0.16980730  0.52950057    -0.01000
C1761       C  0.97936841  0.16380390  0.55861207     0.04000
C1762       C  0.97259727  0.16360522  0.60028567    -0.03900
C1763       C  0.94609243  0.17116992  0.61269453    -0.01000
C1764       C  0.92563682  0.17701533  0.58407375     0.04000
C1765       C  0.96782960  0.17016512  0.48708937     0.38600
C1766       C  0.94210245  0.17741455  0.65523151     0.38600
C1767       C  0.89882208  0.18445942  0.59936322     0.35800
C1768       C  0.00853484  0.16042817  0.54563414     0.37000
N1769       N  0.87775831  0.19061027  0.61223231    -0.37800
N1770       N  0.03187495  0.15856230  0.53412234    -0.37800
N1771       N  0.93924561  0.18380409  0.68873307    -0.37200
N1772       N  0.97513508  0.17027497  0.45345006    -0.37200
C1773       C  0.84750327  0.07780523  0.41116474    -0.03900
C1774       C  0.86874510  0.06180065  0.42104739    -0.01000
C1775       C  0.86988118  0.03594465  0.39799749     0.04000
C1776       C  0.84963136  0.02563353  0.36522764    -0.03900
C1777       C  0.82958061  0.04257324  0.35420202    -0.01000
C1778       C  0.82793951  0.06800175  0.37755832     0.04000
C1779       C  0.88906067  0.07141024  0.45557333     0.38600
C1780       C  0.81269602  0.03567464  0.31651331     0.38600
C1781       C  0.80706453  0.08496386  0.36575691     0.37000
C1782       C  0.89231988  0.02046489  0.40776752     0.37000
N1783       N  0.79043347  0.09856851  0.35668874    -0.37800
N1784       N  0.91065150  0.00871627  0.41622206    -0.37800
N1785       N  0.79965187  0.03141447  0.28599978    -0.37200
N1786       N  0.90533004  0.07891452  0.48306131    -0.37200
C1787       C  0.75532781  0.08347051  0.55652105    -0.03900
C1788       C  0.73847209  0.06044903  0.52959861    -0.01000
C1789       C  0.71031651  0.04027599  0.54233899     0.04000
C1790       C  0.69974879  0.04259658  0.58214735    -0.03900
C1791       C  0.71910644  0.06236321  0.61045732    -0.01000
C1792       C  0.74687749  0.08269706  0.59768739     0.04000
C1793       C  0.74832789  0.05950582  0.48789664     0.38600
C1794       C  0.71031139  0.06254861  0.65265380     0.38600
C1795       C  0.76587476  0.10427180  0.62646457     0.37000
C1796       C  0.69097613  0.01888205  0.51374744     0.37000
N1797       N  0.78086699  0.12156320  0.64940186    -0.37800
N1798       N  0.67548077  0.00182859  0.49098480    -0.37800
N1799       N  0.70502553  0.06224802  0.68696637    -0.37200
N1800       N  0.75622172  0.05864936  0.45465145    -0.37200
C1801       C  0.74251597  0.15967337  0.43709748    -0.03900
C1802       C  0.71266840  0.14112507  0.44711049    -0.01000
C1803       C  0.68733375  0.13954522  0.42135257     0.04000
C1804       C  0.69105023  0.15798871  0.38671798    -0.03900
C1805       C  0.72142552  0.17375807  0.37448829    -0.01000
C1806       C  0.74685497  0.17490657  0.39971165     0.04000
C1807       C  0.70777083  0.12400908  0.48440363     0.38600
C1808       C  0.72660310  0.18796589  0.33510613     0.38600
C1809       C  0.77744905  0.19255811  0.38777350     0.37000
C1810       C  0.65801764  0.11743210  0.42900108     0.37000
N1811       N  0.80189138  0.20668817  0.37838490    -0.37800
N1812       N  0.63501981  0.09892194  0.43492285    -0.37800
N1813       N  0.73084374  0.19895979  0.30340689    -0.37200
N1814       N  0.70342534  0.11049198  0.51430783    -0.37200
C1815       C  0.93584360  0.32743392  0.38879066    -0.03900
C1816       C  0.92032940  0.30350776  0.36194230    -0.01000
C1817       C  0.90911256  0.27316658  0.37584609     0.04000
C1818       C  0.91375981  0.26638828  0.41652172    -0.03900
C1819       C  0.93015759  0.28999895  0.44272018    -0.01000
C1820       C  0.93865099  0.32048874  0.42990614     0.04000
C1821       C  0.91399615  0.31003154  0.32061339     0.38600
C1822       C  0.93783329  0.28300220  0.48348327     0.38600
C1823       C  0.44419672  0.34402974  0.46083890     0.37000
C1824       C  0.89195616  0.24916599  0.34855662     0.37000
N1825       N  0.44640564  0.36108922  0.48758463    -0.37800
N1826       N  0.87834890  0.23001759  0.32676846    -0.37800
N1827       N  0.94405072  0.27731918  0.51582781    -0.37200
N1828       N  0.90777496  0.31456428  0.28781848    -0.37200
C1829       C  0.85358710  0.32560542  0.62640562    -0.03900
C1830       C  0.83576514  0.29731818  0.64229742    -0.01000
C1831       C  0.83013114  0.26991489  0.61920883     0.04000
C1832       C  0.84207691  0.27029820  0.57953720    -0.03900
C1833       C  0.86108947  0.29837136  0.56456818    -0.01000
C1834       C  0.86842134  0.32524023  0.58905530     0.04000
C1835       C  0.82335358  0.29652453  0.68283147     0.38600
C1836       C  0.86977283  0.30058165  0.52228620     0.38600
C1837       C  0.89226052  0.35214347  0.57685098     0.37000
C1838       C  0.81166116  0.24137129  0.63624938     0.37000
N1839       N  0.91192174  0.37341878  0.56765732    -0.37800
N1840       N  0.79685958  0.21862174  0.64984589    -0.37800
N1841       N  0.87535368  0.30254956  0.48804392    -0.37200
N1842       N  0.81356915  0.29574175  0.71531308    -0.37200
C1843       C  0.90867652  0.00559234  0.16676788    -0.03900
C1844       C  0.91879598  0.03413868  0.18675118    -0.01000
C1845       C  0.95004247  0.04584428  0.19825916     0.04000
C1846       C  0.96958594  0.02705456  0.19571881    -0.03900
C1847       C  0.96153509  0.00358997  0.16540384    -0.01000
C1848       C  0.93091102  0.99219010  0.15242739     0.04000
C1849       C  0.89751986  0.05138010  0.19507970     0.38600
C1850       C  0.98477102  0.49451699  0.14647628     0.38600
C1851       C  0.92328195  0.46804359  0.12582931     0.37000
C1852       C  0.96379407  0.07846395  0.20147086     0.37000
N1853       N  0.91633971  0.44717894  0.10400897    -0.37800
N1854       N  0.97489852  0.10466297  0.20213907    -0.37800
N1855       N  0.00185909  0.48544877  0.12790926    -0.37200
N1856       N  0.88048374  0.06522099  0.20152107    -0.37200
C1857       C  0.52403215  0.47131493  0.20940479    -0.03900
C1858       C  0.55614475  0.45429182  0.20644141    -0.01000
C1859       C  0.54919391  0.41347491  0.21438367     0.04000
C1860       C  0.51027357  0.38870150  0.22572487    -0.03900
C1861       C  0.97880926  0.40589181  0.23191308    -0.01000
C1862       C  0.98523834  0.44658249  0.22374351     0.04000
C1863       C  0.58735566  0.47214259  0.20056802     0.38600
C1864       C  0.94838263  0.38795407  0.24231218     0.38600
C1865       C  0.95985511  0.45812643  0.23202843     0.37000
C1866       C  0.57497441  0.40173992  0.21019673     0.37000
N1867       N  0.93802278  0.46524741  0.23859423    -0.37800
N1868       N  0.59681270  0.39399358  0.20709227    -0.37800
N1869       N  0.92360966  0.37492101  0.25158698    -0.37200
N1870       N  0.61287103  0.48477070  0.19455497    -0.37200
C1871       C  0.62269570  0.11576509  0.15093747    -0.03900
C1872       C  0.61613403  0.08415284  0.14497981    -0.01000
C1873       C  0.59352390  0.06365247  0.16872211     0.04000
C1874       C  0.57914519  0.07450151  0.20182703    -0.03900
C1875       C  0.58800646  0.10638687  0.20954882    -0.01000
C1876       C  0.61095234  0.12652048  0.18590393     0.04000
C1877       C  0.62990228  0.07298253  0.11064798     0.38600
C1878       C  0.56976197  0.11930781  0.23639034     0.38600
C1879       C  0.61827406  0.15918853  0.19301622     0.37000
C1880       C  0.58232243  0.03256623  0.15373383     0.37000
N1881       N  0.62355629  0.18515417  0.19897814    -0.37800
N1882       N  0.57340899  0.51062123  0.14062369    -0.37800
N1883       N  0.55500645  0.13013616  0.25678188    -0.37200
N1884       N  0.64076109  0.06373278  0.08350751    -0.37200
C1885       C  0.56584726  0.26973972  0.93346419    -0.03900
C1886       C  0.55929677  0.24712213  0.96399667    -0.01000
C1887       C  0.54621289  0.21606919  0.95357923     0.04000
C1888       C  0.53772444  0.20728437  0.91319987    -0.03900
C1889       C  0.54044262  0.23017054  0.88381817    -0.01000
C1890       C  0.55414051  0.26129519  0.89406572     0.04000
C1891       C  0.56785090  0.25504832  0.00595442     0.38600
C1892       C  0.53176699  0.22183271  0.84211357     0.38600
C1893       C  0.55646542  0.28465377  0.86391902     0.37000
C1894       C  0.54392895  0.19300909  0.98410807     0.37000
N1895       N  0.55787522  0.30319618  0.83986171    -0.37800
N1896       N  0.54265989  0.17506764  0.00892582    -0.37800
N1897       N  0.52521150  0.21605515  0.80849185    -0.37200
N1898       N  0.57431963  0.26102789  0.03956931    -0.37200
C1899       C  0.65019280  0.25816444  0.01693731    -0.03900
C1900       C  0.65981052  0.25750771  0.05754986    -0.01000
C1901       C  0.65870195  0.22941709  0.07563599     0.04000
C1902       C  0.64752670  0.20177440  0.05362245    -0.03900
C1903       C  0.64048463  0.20265767  0.01211964    -0.01000
C1904       C  0.64215630  0.23052949  0.99369232     0.04000
C1905       C  0.67021483  0.28548568  0.08136857     0.38600
C1906       C  0.62830392  0.17470497  0.98860762     0.38600
C1907       C  0.63337552  0.22972666  0.95116998     0.37000
C1908       C  0.66636751  0.22901634  0.11812882     0.37000
N1909       N  0.62660214  0.22897935  0.91730584    -0.37800
N1910       N  0.67264762  0.22976818  0.15212309    -0.37800
N1911       N  0.61796066  0.15354705  0.96807045    -0.37200
N1912       N  0.67842635  0.30762343  0.10072806    -0.37200
C1913       C  0.65897587  0.44675216  0.93826221    -0.03900
C1914       C  0.63430520  0.45982476  0.93992651    -0.01000
C1915       C  0.63309831  0.48323799  0.91291263     0.04000
C1916       C  0.65571246  0.49300619  0.88260132    -0.03900
C1917       C  0.67696669  0.47651461  0.87668798    -0.01000
C1918       C  0.67952430  0.45447120  0.90479309     0.04000
C1919       C  0.60929759  0.44881451  0.96848144     0.38600
C1920       C  0.69549180  0.48145721  0.84020516     0.38600
C1921       C  0.70367226  0.44024706  0.89825152     0.37000
C1922       C  0.60842404  0.49685180  0.91745950     0.37000
N1923       N  0.72311391  0.42928821  0.89222701    -0.37800
N1924       N  0.58783005  0.00923166  0.93070325    -0.37800
N1925       N  0.70985490  0.48478043  0.81076182    -0.37200
N1926       N  0.58916549  0.44003222  0.99089552    -0.37200
C1927       C  0.52383319  0.34450391  0.15734014    -0.03900
C1928       C  0.51887308  0.35394025  0.11816647    -0.01000
C1929       C  0.54220946  0.35876886  0.08859771     0.04000
C1930       C  0.56979109  0.35201982  0.09719885    -0.03900
C1931       C  0.57413245  0.34110973  0.13587037    -0.01000
C1932       C  0.55130923  0.33757778  0.16586761     0.04000
C1933       C  0.98949765  0.35791126  0.10806576     0.38600
C1934       C  0.60263578  0.33475854  0.14537891     0.38600
C1935       C  0.55576750  0.32639116  0.20565370     0.37000
C1936       C  0.53780000  0.37064719  0.04931675     0.37000
N1937       N  0.55931791  0.31766427  0.23749887    -0.37800
N1938       N  0.53427639  0.38037918  0.01811677    -0.37800
N1939       N  0.62544700  0.32988622  0.15302693    -0.37200
N1940       N  0.96600005  0.36095231  0.09968418    -0.37200
C1941       C  0.80383084  0.45476062  0.11269804    -0.03900
C1942       C  0.80310659  0.45889439  0.07022117    -0.01000
C1943       C  0.77495598  0.45008755  0.04917445     0.04000
C1944       C  0.74812610  0.43332626  0.06904764    -0.03900
C1945       C  0.74876026  0.42822617  0.11105021    -0.01000
C1946       C  0.77618629  0.43963624  0.13298581     0.04000
C1947       C  0.83103807  0.46785980  0.04671267     0.38600
C1948       C  0.72146768  0.40977170  0.13149640     0.38600
C1949       C  0.77593699  0.43434224  0.17632074     0.37000
C1950       C  0.77347082  0.45821073  0.00700712     0.37000
N1951       N  0.77462617  0.92721225  0.21263031    -0.37800
N1952       N  0.77209685  0.46474148  0.97343964    -0.37800
N1953       N  0.69983859  0.39489312  0.14779650    -0.37200
N1954       N  0.85244796  0.47367595  0.02607342    -0.37200
C1955       C  0.74777647  0.35019504  0.90471036    -0.03900
C1956       C  0.74598704  0.32868097  0.87263838    -0.01000
C1957       C  0.77283994  0.32491824  0.85519524     0.04000
C1958       C  0.80161377  0.34541643  0.86507295    -0.03900
C1959       C  0.80327504  0.36832433  0.89487794    -0.01000
C1960       C  0.77696396  0.36877231  0.91701002     0.04000
C1961       C  0.71659637  0.31064368  0.85651473     0.38600
C1962       C  0.83111747  0.39329448  0.90050689     0.38600
C1963       C  0.78072247  0.38615849  0.95450470     0.37000
C1964       C  0.77078424  0.29967975  0.82722342     0.37000
N1965       N  0.78453088  0.39906642  0.98525566    -0.37800
N1966       N  0.76929857  0.27950158  0.80510006    -0.37800
N1967       N  0.85278032  0.41396086  0.90450071    -0.37200
N1968       N  0.69318397  0.29636042  0.84355132    -0.37200
C1969       C  0.75828304  0.08702385  0.93763704    -0.03900
C1970       C  0.76398830  0.07966025  0.89754675    -0.01000
C1971       C  0.73977447  0.06197943  0.87329270     0.04000
C1972       C  0.70937999  0.05325803  0.88859949    -0.03900
C1973       C  0.70453615  0.05860009  0.93011981    -0.01000
C1974       C  0.72950372  0.07344579  0.95513498     0.04000
C1975       C  0.79459881  0.09161451  0.88098666     0.38600
C1976       C  0.67406790  0.05440879  0.94606759     0.38600
C1977       C  0.72500222  0.07724942  0.99823429     0.37000
C1978       C  0.74601443  0.05508823  0.83169689     0.37000
N1979       N  0.72125360  0.07998511  0.03260836    -0.37800
N1980       N  0.75141856  0.04997965  0.79852740    -0.37800
N1981       N  0.65052421  0.05282292  0.96037665    -0.37200
N1982       N  0.81912717  0.10126709  0.86819797    -0.37200
C1983       C  0.73687598  0.16013978  0.05305133    -0.03900
C1984       C  0.73376396  0.16902582  0.09374446    -0.01000
C1985       C  0.70412487  0.16621693  0.11042832     0.04000
C1986       C  0.67737230  0.15358946  0.08698891    -0.03900
C1987       C  0.68068571  0.14170493  0.04826715    -0.01000
C1988       C  0.70978779  0.14722150  0.03021025     0.04000
C1989       C  0.76105011  0.18320248  0.11725612     0.38600
C1990       C  0.65383078  0.12258956  0.02759337     0.38600
C1991       C  0.71130653  0.14099609  0.98716767     0.37000
C1992       C  0.70117613  0.17523845  0.15199903     0.37000
N1993       N  0.71178569  0.13653791  0.95261102    -0.37800
N1994       N  0.69926920  0.18210216  0.18555583    -0.37800
N1995       N  0.63243030  0.10643116  0.01193599    -0.37200
N1996       N  0.78293912  0.19481520  0.13577149    -0.37200
C1997       C  0.85151412  0.27046225  0.93107040    -0.03900
C1998       C  0.85879520  0.29996385  0.94881918    -0.01000
C1999       C  0.86386164  0.32633621  0.92423770     0.04000
C2000       C  0.86067354  0.32361941  0.88159920    -0.03900
C2001       C  0.85554131  0.29386742  0.86394245    -0.01000
C2002       C  0.85075472  0.26774545  0.88851936     0.04000
C2003       C  0.85988175  0.30312609  0.99254559     0.38600
C2004       C  0.85473988  0.28933918  0.82040437     0.38600
C2005       C  0.84424588  0.23762474  0.86983756     0.37000
C2006       C  0.87322753  0.35631184  0.94299969     0.37000
N2007       N  0.83898937  0.21363263  0.85495419    -0.37800
N2008       N  0.88140402  0.37994341  0.95896701    -0.37800
N2009       N  0.85407266  0.28462397  0.78582693    -0.37200
N2010       N  0.86052187  0.30578013  0.02746824    -0.37200
C2011       C  0.93369132  0.16872693  0.96825471    -0.03900
C2012       C  0.93639120  0.17847749  0.92706176    -0.01000
C2013       C  0.95784036  0.17119791  0.90051102     0.04000
C2014       C  0.97746062  0.15496162  0.91440887    -0.03900
C2015       C  0.97375801  0.14356465  0.95416955    -0.01000
C2016       C  0.95271446  0.15068984  0.98107701     0.04000
C2017       C  0.91800429  0.19678090  0.91148998     0.38600
C2018       C  0.49190957  0.12425311  0.96762346     0.38600
C2019       C  0.95180592  0.13951959  0.02224297     0.37000
C2020       C  0.95895346  0.17921075  0.85812027     0.37000
N2021       N  0.95142725  0.13058289  0.05497051    -0.37800
N2022       N  0.95908647  0.18498468  0.82406397    -0.37800
N2023       N  0.50592347  0.10844278  0.97834271    -0.37200
N2024       N  0.90362251  0.21154929  0.89864859    -0.37200
C2025       C  0.92406059  0.25540429  0.09794232    -0.03900
C2026       C  0.95487506  0.25614537  0.10369940    -0.01000
C2027       C  0.97254493  0.27468465  0.13449389     0.04000
C2028       C  0.96019651  0.29442215  0.15749160    -0.03900
C2029       C  0.93022403  0.29575284  0.14854165    -0.01000
C2030       C  0.91197623  0.27570482  0.11966944     0.04000
C2031       C  0.96795054  0.23681456  0.07873870     0.38600
C2032       C  0.91736605  0.31703651  0.16955988     0.38600
C2033       C  0.87997243  0.27418124  0.11474029     0.37000
C2034       C  0.50210776  0.27107242  0.14452575     0.37000
N2035       N  0.85437749  0.27269962  0.11121631    -0.37800
N2036       N  0.52536834  0.26713442  0.15204838    -0.37800
N2037       N  0.90595896  0.33355159  0.18532106    -0.37200
N2038       N  0.97838954  0.22159950  0.05854538    -0.37200
C2039       C  0.84213095  0.07059892  0.08387526    -0.03900
C2040       C  0.86487900  0.05741792  0.06971515    -0.01000
C2041       C  0.87018546  0.03235669  0.08963172     0.04000
C2042       C  0.85092232  0.01798751  0.12148583    -0.03900
C2043       C  0.82735488  0.03017561  0.13465178    -0.01000
C2044       C  0.82320025  0.05653938  0.11638687     0.04000
C2045       C  0.88246976  0.06901258  0.03353294     0.38600
C2046       C  0.80843517  0.01642189  0.16870446     0.38600
C2047       C  0.80034961  0.06980133  0.13235856     0.37000
C2048       C  0.89537510  0.02136110  0.07652571     0.37000
N2049       N  0.78205974  0.08023937  0.14537469    -0.37800
N2050       N  0.91571385  0.01342220  0.06478307    -0.37800
N2051       N  0.79336355  0.00542781  0.19593904    -0.37200
N2052       N  0.89635865  0.07791343  0.00451248    -0.37200
C2053       C  0.94171636  0.44625859  0.79521033    -0.03900
C2054       C  0.91003944  0.44197747  0.79056918    -0.01000
C2055       C  0.88851817  0.41672300  0.80814985     0.04000
C2056       C  0.89817363  0.39281013  0.82564629    -0.03900
C2057       C  0.92943297  0.39903665  0.83526111    -0.01000
C2058       C  0.95100917  0.42651627  0.82189149     0.04000
C2059       C  0.89910899  0.46296777  0.76666255     0.38600
C2060       C  0.93921508  0.37689400  0.85831798     0.38600
C2061       C  0.98267035  0.43354185  0.83433731     0.37000
C2062       C  0.85634276  0.41523057  0.80688232     0.37000
N2063       N  0.00773110  0.43887408  0.84534194    -0.37800
N2064       N  0.83087841  0.41473344  0.80566508    -0.37800
N2065       N  0.94662335  0.35908426  0.87707137    -0.37200
N2066       N  0.88929299  0.47877424  0.74732633    -0.37200
C2067       C  0.48424058  0.05571956  0.79225162    -0.03900
C2068       C  0.96635794  0.05383545  0.82808019    -0.01000
C2069       C  0.47220037  0.07884374  0.85591827     0.04000
C2070       C  0.49476285  0.10653746  0.84733725    -0.03900
C2071       C  0.50883362  0.10997845  0.80885444    -0.01000
C2072       C  0.50535483  0.08454494  0.78284878     0.04000
C2073       C  0.94355537  0.02545176  0.83833835     0.38600
C2074       C  0.53008960  0.13929771  0.79800193     0.38600
C2075       C  0.52632305  0.08848919  0.74897295     0.37000
C2076       C  0.95630470  0.07512040  0.89440061     0.37000
N2077       N  0.54374230  0.09378990  0.72255278    -0.37800
N2078       N  0.94307291  0.07130697  0.92477958    -0.37800
N2079       N  0.54741562  0.16236755  0.78935125    -0.37200
N2080       N  0.92555571  0.00290622  0.84741000    -0.37200
C2081       C  0.54503631  0.99548729  0.79821470    -0.03900
C2082       C  0.56483873  0.47494382  0.78339660    -0.01000
C2083       C  0.59522885  0.48147620  0.79769625     0.04000
C2084       C  0.60565689  0.00989201  0.82823214    -0.03900
C2085       C  0.58603064  0.02658042  0.84160746    -0.01000
C2086       C  0.55523526  0.01789053  0.82929074     0.04000
C2087       C  0.55308563  0.44844013  0.75746260     0.38600
C2088       C  0.59831452  0.05468341  0.86503648     0.38600
C2089       C  0.53556637  0.03352972  0.84831087     0.37000
C2090       C  0.61448744  0.46282823  0.78520049     0.37000
N2091       N  0.52150919  0.04628242  0.86677340    -0.37800
N2092       N  0.62994725  0.44803078  0.77534162    -0.37800
N2093       N  0.60809506  0.07710147  0.88342819    -0.37200
N2094       N  0.54544429  0.42713392  0.73653034    -0.37200
C2095       C  0.94451372  0.44151073  0.70350716    -0.03900
C2096       C  0.92409136  0.44668377  0.67439142    -0.01000
C2097       C  0.90028816  0.42200340  0.65895921     0.04000
C2098       C  0.89682506  0.39181532  0.67234202    -0.03900
C2099       C  0.91992608  0.38617718  0.69599553    -0.01000
C2100       C  0.94378828  0.41084446  0.71150512     0.04000
C2101       C  0.92506465  0.47751965  0.66336287     0.38600
C2102       C  0.91740889  0.35501973  0.70733239     0.38600
C2103       C  0.96706311  0.40404576  0.73599001     0.37000
C2104       C  0.87654053  0.42867067  0.63486703     0.37000
N2105       N  0.98471597  0.39684306  0.75543291    -0.37800
N2106       N  0.85768855  0.43517896  0.61694283    -0.37800
N2107       N  0.91509616  0.33012254  0.71641852    -0.37200
N2108       N  0.92845203  0.00287166  0.64960715    -0.37200
C2109       C  0.97943472  0.10970256  0.66422922    -0.03900
C2110       C  0.99682669  0.09167722  0.64709753    -0.01000
C2111       C  0.99579430  0.06271357  0.66365267     0.04000
C2112       C  0.97691984  0.05093982  0.69775928    -0.03900
C2113       C  0.45505209  0.06617820  0.70865844    -0.01000
C2114       C  0.45727376  0.09571496  0.69366454     0.04000
C2115       C  0.01847910  0.10396961  0.61505521     0.38600
C2116       C  0.43049484  0.05214892  0.73647207     0.38600
C2117       C  0.43801091  0.11253188  0.71142493     0.37000
C2118       C  0.01686627  0.04734178  0.64746458     0.37000
N2119       N  0.42225559  0.12500443  0.72689872    -0.37800
N2120       N  0.03405539  0.03618994  0.63285219    -0.37800
N2121       N  0.41066556  0.04195671  0.75881851    -0.37200
N2122       N  0.03621618  0.11229636  0.58947189    -0.37200
C2123       C  0.54779317  0.99819371  0.70396277    -0.03900
C2124       C  0.54440801  0.47728443  0.66587062    -0.01000
C2125       C  0.56827375  0.48235055  0.63719783     0.04000
C2126       C  0.59941915  0.00547301  0.65189387    -0.03900
C2127       C  0.60144099  0.02429519  0.68656099    -0.01000
C2128       C  0.57558080  0.02159885  0.71134975     0.04000
C2129       C  0.51776571  0.45115656  0.65973721     0.38600
C2130       C  0.62837680  0.05018647  0.69302915     0.38600
C2131       C  0.57757344  0.04513475  0.74181719     0.37000
C2132       C  0.56296693  0.46634355  0.59855815     0.37000
N2133       N  0.58106367  0.06463349  0.76558051    -0.37800
N2134       N  0.55869196  0.45446373  0.56714664    -0.37800
N2135       N  0.64857447  0.07195535  0.69867577    -0.37200
N2136       N  0.49750734  0.42965125  0.65296446    -0.37200
C2137       C  0.98905844  0.99634799  0.70887918     0.46900
H2138       H  0.98939184  0.99471310  0.67544636    -0.02100
C2139       C  0.48897435  0.49746469  0.78651681     0.47000
H2140       H  0.48859028  0.49760477  0.82000310    -0.02100
C2141       C  0.51958528  0.99607178  0.72905997    -0.15800
C2142       C  0.98180340  0.52498170  0.72483477    -0.15600
C2143       C  0.96489283  0.96886450  0.72753398    -0.15900
C2144       C  0.51844865  0.99596741  0.77107131    -0.15900
C2145       C  0.98366905  0.52646157  0.76693526    -0.15500
C2146       C  0.96329764  0.97025144  0.76913755    -0.15800
O2147       O  0.86843166  0.62000482  0.05768838    -0.79500
O2148       O  0.86561005  0.73340221  0.96773487    -0.64100
O2149       O  0.84927324  0.67205267  0.04968229    -1.10700
C2150       C  0.77787598  0.61539144  0.95448941     1.07400
O2151       O  0.81591548  0.72794653  0.96107947    -0.77300
O2152       O  0.77262355  0.68273523  0.00131896    -0.64900
Ni2153     Ni  0.88212353  0.66169860  0.07486905     1.34900
C2154       C  0.76739589  0.66514507  0.03173887     0.86200
O2155       O  0.89008314  0.73148524  0.04200317    -0.77900
O2156       O  0.89854778  0.70253409  0.09300225    -0.88200
C2157       C  0.84387251  0.74289841  0.95459884     0.85700
O2158       O  0.91080362  0.66876715  0.03143265    -0.66400
O2159       O  0.77659160  0.64147684  0.94250985    -0.85700
C2160       C  0.91028972  0.67602487  0.99462817     0.86600
C2161       C  0.90273146  0.72797945  0.07546202     1.08100
H2162       H  0.83973429  0.66628658  0.95606103     0.39900
O2163       O  0.82951518  0.67299873  0.97841552    -1.08300
O2164       O  0.78505581  0.64914588  0.04193398    -0.65000
Ni2165     Ni  0.82153951  0.64111104  0.01768770     1.26300
O2166       O  0.89048184  0.68834105  0.98187298    -0.65200
O2167       O  0.79512668  0.61150665  0.98282285    -0.77500
C2168       C  0.84243724  0.60145394  0.06491394     0.86000
O2169       O  0.81829092  0.60909361  0.05729224    -0.64700
Ni2170     Ni  0.79711142  0.68408907  0.95386963     1.27400
Ni2171     Ni  0.85942484  0.70287252  0.00910789     1.26100
H2172       H  0.83786366  0.67864473  0.07068661     0.40500
N2173       N  0.85582341  0.84981134  0.85570670    -0.02000
C2174       C  0.87479269  0.86091963  0.82365709     0.00600
C2175       C  0.85856147  0.85248394  0.78780616    -0.22300
C2176       C  0.82821840  0.84393546  0.79780883    -0.22500
C2177       C  0.82735841  0.84448296  0.83956296     0.00500
H2178       H  0.86740797  0.85905250  0.75791277     0.14200
H2179       H  0.80937553  0.84184435  0.77709523     0.14300
O2180       O  0.69803485  0.82767720  0.93076584    -0.79500
O2181       O  0.60106341  0.83382586  0.05124945    -0.64100
O2182       O  0.65229251  0.85118637  0.95809232    -1.10700
C2183       C  0.71877997  0.91806792  0.04802268     1.07400
O2184       O  0.60725860  0.88351325  0.05939668    -0.77300
O2185       O  0.64484851  0.92058004  0.00514878    -0.64900
Ni2186     Ni  0.65513051  0.81986557  0.92208217     1.34900
C2187       C  0.66108015  0.92480913  0.97324673     0.86200
O2188       O  0.59318700  0.81140617  0.97523087    -0.77900
O2189       O  0.61167257  0.80799302  0.91304602    -0.88200
C2190       C  0.59365530  0.85575478  0.06803588     0.85700
O2191       O  0.65036878  0.78868952  0.96006369    -0.66400
O2192       O  0.69433990  0.92498425  0.05694196    -0.85700
C2193       C  0.64747650  0.78681319  0.99805156     0.86600
C2194       C  0.59097359  0.79905526  0.94005218     1.08100
H2195       H  0.66587291  0.85776263  0.05318332     0.39900
O2196       O  0.65892628  0.86837268  0.03174439    -1.08300
O2197       O  0.68154835  0.91142650  0.96787814    -0.65000
Ni2198     Ni  0.68744252  0.87431133  0.98837393     1.26300
O2199       O  0.64139603  0.80754910  0.01971274    -0.65200
O2200       O  0.71995486  0.89751294  0.02209823    -0.77500
C2201       C  0.71884114  0.85265618  0.92712024     0.86000
O2202       O  0.71608688  0.87673380  0.94435590    -0.64700
Ni2203     Ni  0.65103099  0.90311419  0.05554219     1.27400
Ni2204     Ni  0.62586041  0.84066491  0.00369223     1.26100
H2205       H  0.64478044  0.86501271  0.94190239     0.40500
N2206       N  0.64798246  0.65743534  0.09909505    -0.02000
C2207       C  0.62406272  0.63521407  0.11534540     0.00600
C2208       C  0.59618050  0.63786033  0.10241149    -0.22300
C2209       C  0.60227189  0.66264477  0.07838995    -0.22500
C2210       C  0.63366497  0.67401742  0.07652663     0.00500
H2211       H  0.57367198  0.62457101  0.11248193     0.14200
H2212       H  0.58564232  0.67199589  0.06443987     0.14300
N2213       N  0.65834894  0.51976875  0.85804534    -0.02000
C2214       C  0.64116222  0.52096871  0.82497317     0.00600
C2215       C  0.65600614  0.54496566  0.80038629    -0.22300
C2216       C  0.68332176  0.55931029  0.81866045    -0.22500
C2217       C  0.68442960  0.54343699  0.85369958     0.00500
H2218       H  0.64677337  0.55267350  0.77375889     0.14200
H2219       H  0.70002692  0.57991892  0.80838797     0.14300
N2220       N  0.49879175  0.83684085  0.18858262    -0.02000
C2221       C  0.50054941  0.85267365  0.22405086     0.00600
C2222       C  0.97953787  0.83547262  0.25104717    -0.22300
C2223       C  0.96419264  0.80867248  0.23151380    -0.22500
C2224       C  0.97594928  0.81040738  0.19275374     0.00500
H2225       H  0.97325203  0.84328945  0.27995078     0.14200
H2226       H  0.94430917  0.79140799  0.24270829     0.14300
N2227       N  0.50509913  0.65400213  0.89102916    -0.02000
C2228       C  0.51210215  0.62777153  0.88088211     0.00600
C2229       C  0.54305759  0.63183103  0.88757542    -0.22300
C2230       C  0.55592206  0.66159845  0.89911271    -0.22500
C2231       C  0.53245845  0.67474137  0.90043641     0.00500
H2232       H  0.55566448  0.61595885  0.87947483     0.14200
H2233       H  0.57994341  0.67271864  0.90474903     0.14300
N2234       N  0.85468665  0.49119328  0.13766800    -0.02000
C2235       C  0.87642024  0.48831900  0.16439959     0.00600
C2236       C  0.86751722  0.95761107  0.18038400    -0.22300
C2237       C  0.84037440  0.94198575  0.16274072    -0.22500
C2238       C  0.83200761  0.96230216  0.13802243     0.00500
H2239       H  0.88120902  0.94777849  0.19956087     0.14200
H2240       H  0.82830050  0.91808074  0.16696921     0.14300
O2241       O  0.80979359  0.72566221  0.55046804    -0.79500
O2242       O  0.82383614  0.61209225  0.44659506    -0.64100
O2243       O  0.82797099  0.67319702  0.52814837    -1.10700
C2244       C  0.89916327  0.73557339  0.43579335     1.07400
O2245       O  0.87425885  0.62588585  0.44238223    -0.77300
O2246       O  0.91232791  0.67427941  0.47691599    -0.64900
Ni2247     Ni  0.79203791  0.68126511  0.54844784     1.34900
C2248       C  0.91016349  0.68218495  0.51344910     0.86200
O2249       O  0.79870106  0.61096169  0.52004448    -0.77900
O2250       O  0.77143510  0.63815516  0.55156768    -0.88200
C2251       C  0.84843220  0.60670411  0.43546466     0.85700
O2252       O  0.77297970  0.68259314  0.49692610    -0.66400
O2253       O  0.90032477  0.71129171  0.41745914    -0.85700
C2254       C  0.76977027  0.66401440  0.46706023     0.86600
C2255       C  0.77646595  0.61293490  0.54203843     1.08100
H2256       H  0.83823062  0.68034515  0.43586610     0.39900
O2257       O  0.85018874  0.67481000  0.45685547    -1.08300
O2258       O  0.88924436  0.69370308  0.52477632    -0.65000
Ni2259     Ni  0.85620752  0.70480814  0.49893657     1.26300
O2260       O  0.78742374  0.64719971  0.46127532    -0.65200
O2261       O  0.88416399  0.73572851  0.46832858    -0.77500
C2262       C  0.83747734  0.74205473  0.55620451     0.86000
O2263       O  0.85987662  0.73421006  0.54172999    -0.64700
Ni2264     Ni  0.88572951  0.66878865  0.43116920     1.27400
Ni2265     Ni  0.82413214  0.64226567  0.48744090     1.26100
H2266       H  0.83811006  0.66766547  0.55118892     0.40500
N2267       N  0.85131121  0.85543790  0.64239243    -0.02000
C2268       C  0.86742271  0.87278976  0.67317821     0.00600
C2269       C  0.84825048  0.88446854  0.69688159    -0.22300
C2270       C  0.82021581  0.87610131  0.67909342    -0.22500
C2271       C  0.82300363  0.85889218  0.64573938     0.00500
H2272       H  0.85536720  0.90181753  0.72025676     0.14200
H2273       H  0.80072735  0.88369962  0.68760482     0.14300
O2274       O  0.60398543  0.88691962  0.45946394    -0.79500
O2275       O  0.72235263  0.86719865  0.52968981    -0.64100
O2276       O  0.65528306  0.86812319  0.46416262    -1.10700
C2277       C  0.60230430  0.79086515  0.55985536     1.07400
O2278       O  0.70507450  0.81719908  0.52596023    -0.77300
O2279       O  0.65083551  0.78015427  0.50977097    -0.64900
Ni2280     Ni  0.64731249  0.90499298  0.45148015     1.34900
C2281       C  0.64635521  0.78523275  0.47313223     0.86200
O2282       O  0.71806854  0.89606165  0.46122821    -0.77900
O2283       O  0.69028197  0.92603873  0.44037860    -0.88200
C2284       C  0.72544323  0.84114105  0.53631076     0.85700
O2285       O  0.65006084  0.91978212  0.50565424    -0.66400
O2286       O  0.62792266  0.79799854  0.57819109    -0.85700
C2287       C  0.66908696  0.91964108  0.53340244     0.86600
C2288       C  0.71545862  0.91909216  0.44190116     1.08100
H2289       H  0.65532291  0.85495341  0.55418131     0.39900
O2290       O  0.65926337  0.84333074  0.53124917    -1.08300
O2291       O  0.63836075  0.80818102  0.46203518    -0.65000
Ni2292     Ni  0.62617534  0.83742748  0.49530516     1.26300
O2293       O  0.68813162  0.90424566  0.53095453    -0.65200
O2294       O  0.59818765  0.80409526  0.52689236    -0.77500
C2295       C  0.58615528  0.86008808  0.45247480     0.86000
O2296       O  0.59401495  0.83606462  0.45862038    -0.64700
Ni2297     Ni  0.66674459  0.80827959  0.55249064     1.27400
Ni2298     Ni  0.68945120  0.86973689  0.49702580     1.26100
H2299       H  0.65854960  0.85941211  0.43833452     0.40500
N2300       N  0.64800084  0.51046797  0.60977309    -0.02000
C2301       C  0.61895892  0.51346462  0.61063850     0.00600
C2302       C  0.61637034  0.53626846  0.58515856    -0.22300
C2303       C  0.64445716  0.54886157  0.56871386    -0.22500
C2304       C  0.66328357  0.53314937  0.58419995     0.00500
H2305       H  0.59689670  0.54504518  0.58249582     0.14200
H2306       H  0.65107079  0.56877706  0.54962595     0.14300
N2307       N  0.99642042  0.66375623  0.63299630    -0.02000
C2308       C  0.49241557  0.64442046  0.66547205     0.00600
C2309       C  0.51007657  0.65934872  0.69757305    -0.22300
C2310       C  0.52563451  0.68817194  0.68510955    -0.22500
C2311       C  0.51702553  0.69043573  0.64550675     0.00500
H2312       H  0.51302201  0.64932299  0.72606427     0.14200
H2313       H  0.54328347  0.70481148  0.70195126     0.14300
N2314       N  0.48087909  0.87315477  0.37382956    -0.02000
C2315       C  0.48453705  0.89910846  0.35241203     0.00600
C2316       C  0.95609890  0.90086770  0.34061860    -0.22300
C2317       C  0.93453289  0.87537395  0.35552474    -0.22500
C2318       C  0.95042929  0.85858747  0.37585866     0.00500
H2319       H  0.95158953  0.91787639  0.32113985     0.14200
H2320       H  0.91008237  0.86909457  0.35037116     0.14300
N2321       N  0.66604340  0.66606118  0.36772094    -0.02000
C2322       C  0.65292932  0.65148598  0.33293487     0.00600
C2323       C  0.64934343  0.67248807  0.30506541    -0.22300
C2324       C  0.65720588  0.70025846  0.32399930    -0.22500
C2325       C  0.66641740  0.69563584  0.36248527     0.00500
H2326       H  0.63660765  0.66722914  0.27704467     0.14200
H2327       H  0.65284225  0.72069654  0.31279943     0.14300
N2328       N  0.84885209  0.49872574  0.34403454    -0.02000
C2329       C  0.86899827  0.49461177  0.31534498     0.00600
C2330       C  0.85461883  0.96550173  0.29481801    -0.22300
C2331       C  0.82591983  0.95319766  0.31090142    -0.22500
C2332       C  0.82236632  0.97301844  0.34100483     0.00500
H2333       H  0.86544894  0.95454832  0.27257605     0.14200
H2334       H  0.80996706  0.93129384  0.30297872     0.14300
C2335       C  0.52811482  0.53073892  0.20886013     0.46900
H2336       H  0.52929335  0.53255448  0.17566401    -0.02100
C2337       C  0.52681176  0.52749911  0.28727599     0.47000
H2338       H  0.52625020  0.52647845  0.32075831    -0.02100
C2339       C  0.55466920  0.55544717  0.22901658    -0.15800
C2340       C  0.99757583  0.53357617  0.22594232    -0.15600
C2341       C  0.53082374  0.99851650  0.22461546    -0.15900
C2342       C  0.55420914  0.55383031  0.27098971    -0.15900
C2343       C  0.99647004  0.53196154  0.26848934    -0.15500
C2344       C  0.53074299  0.99628068  0.26454050    -0.15800
C2345       C  0.90318193  0.50893303  0.31439650    -0.03900
C2346       C  0.91751799  0.53899223  0.30132178    -0.01000
C2347       C  0.94957531  0.54856107  0.29299050     0.04000
C2348       C  0.96672090  0.52730612  0.29304526    -0.03900
C2349       C  0.95331374  0.99845104  0.31469468    -0.01000
C2350       C  0.92163204  0.98859047  0.32382630     0.04000
C2351       C  0.89969640  0.56010794  0.29668698     0.38600
C2352       C  0.97270561  0.98508056  0.33734097     0.38600
C2353       C  0.90886720  0.96017989  0.34545195     0.37000
C2354       C  0.96567532  0.58080407  0.29210755     0.37000
N2355       N  0.89866467  0.93776088  0.36303233    -0.37800
N2356       N  0.97818314  0.60675089  0.29285846    -0.37800
N2357       N  0.98621600  0.97505780  0.35999839    -0.37200
N2358       N  0.88574954  0.57729993  0.29302988    -0.37200
C2359       C  0.57965086  0.57312871  0.29793606    -0.03900
C2360       C  0.57358504  0.59393602  0.32616739    -0.01000
C2361       C  0.59761376  0.61935541  0.33982202     0.04000
C2362       C  0.62870905  0.62124144  0.33149657    -0.03900
C2363       C  0.63486410  0.59693578  0.31034328    -0.01000
C2364       C  0.61061746  0.57353719  0.29260598     0.04000
C2365       C  0.54252691  0.59059375  0.33932155     0.38600
C2366       C  0.66647937  0.59757177  0.30408016     0.38600
C2367       C  0.61790718  0.54961125  0.26978636     0.37000
C2368       C  0.58949474  0.64552828  0.35591529     0.37000
N2369       N  0.62506331  0.53075902  0.25250570    -0.37800
N2370       N  0.58194245  0.66626722  0.36703225    -0.37800
N2371       N  0.69183585  0.59842621  0.29947676    -0.37200
N2372       N  0.51816097  0.58799643  0.35156050    -0.37200
C2373       C  0.53246380  0.96598041  0.28281367    -0.03900
C2374       C  0.52307049  0.93440771  0.25997223    -0.01000
C2375       C  0.52114415  0.91217197  0.29426669     0.04000
C2376       C  0.51370329  0.91821743  0.33396465    -0.03900
C2377       C  0.53190249  0.94566751  0.35015242    -0.01000
C2378       C  0.54405475  0.96911786  0.32300549     0.04000
C2379       C  0.50995796  0.92208650  0.17925688     0.38600
C2380       C  0.53879026  0.95074369  0.39278095     0.38600
C2381       C  0.56647586  0.99681709  0.33726133     0.37000
C2382       C  0.54211661  0.89369929  0.29690108     0.37000
N2383       N  0.58445705  0.01822594  0.35022396    -0.37800
N2384       N  0.55880184  0.87913326  0.30028372    -0.37800
N2385       N  0.04655112  0.95732864  0.42586373    -0.37200
N2386       N  0.50451891  0.91757671  0.14500359    -0.37200
C2387       C  0.57811758  0.76396406  0.57673779    -0.03900
C2388       C  0.54783366  0.76451381  0.58451597    -0.01000
C2389       C  0.52722321  0.74036825  0.60630874     0.04000
C2390       C  0.53609926  0.71453254  0.61805742    -0.03900
C2391       C  0.56562800  0.71312802  0.60774073    -0.01000
C2392       C  0.58662167  0.73772330  0.58819516     0.04000
C2393       C  0.53842785  0.79061198  0.57201828     0.38600
C2394       C  0.57503987  0.68658801  0.61875670     0.38600
C2395       C  0.61732183  0.73569787  0.58047429     0.37000
C2396       C  0.49780735  0.74325775  0.61884629     0.37000
N2397       N  0.64165952  0.73361982  0.57489575    -0.37800
N2398       N  0.97460060  0.74629521  0.62899936    -0.37800
N2399       N  0.58278061  0.66563570  0.62761287    -0.37200
N2400       N  0.53097907  0.81142689  0.56173989    -0.37200
C2401       C  0.65107369  0.76298825  0.44328544    -0.03900
C2402       C  0.67499464  0.77160471  0.41466253    -0.01000
C2403       C  0.68236255  0.74904701  0.39064382     0.04000
C2404       C  0.66614383  0.71779371  0.39562733    -0.03900
C2405       C  0.64372612  0.70942967  0.42642787    -0.01000
C2406       C  0.63528662  0.73198564  0.44861615     0.04000
C2407       C  0.69201765  0.80357352  0.40999584     0.38600
C2408       C  0.62787231  0.67786801  0.43503240     0.38600
C2409       C  0.60879025  0.72332274  0.47519726     0.37000
C2410       C  0.70676526  0.75797174  0.36093656     0.37000
N2411       N  0.58720686  0.71615388  0.49545899    -0.37800
N2412       N  0.72629749  0.76525616  0.33735984    -0.37800
N2413       N  0.61384303  0.65340668  0.44390098    -0.37200
N2414       N  0.70552849  0.82906338  0.40613033    -0.37200
C2415       C  0.66760891  0.93768392  0.57042600    -0.03900
C2416       C  0.63954032  0.93227205  0.59124048    -0.01000
C2417       C  0.63577943  0.95374288  0.62027994     0.04000
C2418       C  0.65871634  0.98197911  0.62481142    -0.03900
C2419       C  0.68868657  0.98072148  0.61602065    -0.01000
C2420       C  0.69317728  0.96052258  0.58565209     0.04000
C2421       C  0.61545353  0.90389493  0.58442745     0.38600
C2422       C  0.71270611  0.49916096  0.63343484     0.38600
C2423       C  0.72357159  0.96424964  0.56967621     0.37000
C2424       C  0.61288161  0.94375029  0.65134542     0.37000
N2425       N  0.74809186  0.96795222  0.55729141    -0.37800
N2426       N  0.59480779  0.93446787  0.67630314    -0.37800
N2427       N  0.73347332  0.51154609  0.65353137    -0.37200
N2428       N  0.59657859  0.88100665  0.57903952    -0.37200
C2429       C  0.79525340  0.96521275  0.36928742    -0.03900
C2430       C  0.79869767  0.95771316  0.41015971    -0.01000
C2431       C  0.77271302  0.94459551  0.43471109     0.04000
C2432       C  0.74273377  0.93791193  0.41857817    -0.03900
C2433       C  0.73923717  0.94640137  0.37815393    -0.01000
C2434       C  0.76520273  0.95947632  0.35364347     0.04000
C2435       C  0.82877802  0.95977230  0.42597124     0.38600
C2436       C  0.70887621  0.93955104  0.36043678     0.38600
C2437       C  0.76217349  0.46596632  0.30990627     0.37000
C2438       C  0.77708727  0.93721981  0.47648277     0.37000
N2439       N  0.75841837  0.47008588  0.27604946    -0.37800
N2440       N  0.78088725  0.93127108  0.50966341    -0.37800
N2441       N  0.68464591  0.93402393  0.34639559    -0.37200
N2442       N  0.85222205  0.96021432  0.43952419    -0.37200
C2443       C  0.50426457  0.86588914  0.39693763    -0.03900
C2444       C  0.51463959  0.88239541  0.43284736    -0.01000
C2445       C  0.53987637  0.87828183  0.45337864     0.04000
C2446       C  0.55512944  0.85789078  0.43764871    -0.03900
C2447       C  0.54224305  0.83853353  0.40465020    -0.01000
C2448       C  0.51644230  0.84231718  0.38464006     0.04000
C2449       C  0.49898683  0.90346346  0.44867245     0.38600
C2450       C  0.55616468  0.81573126  0.39009158     0.38600
C2451       C  0.50236735  0.82169523  0.35201843     0.37000
C2452       C  0.55013150  0.89499939  0.49074587     0.37000
N2453       N  0.49133976  0.80406826  0.32695461    -0.37800
N2454       N  0.55848153  0.90817147  0.52062616    -0.37800
N2455       N  0.56720920  0.79745425  0.37859551    -0.37200
N2456       N  0.48657257  0.92034659  0.46126303    -0.37200
C2457       C  0.75076366  0.83863921  0.56053711    -0.03900
C2458       C  0.74495689  0.82680916  0.59989863    -0.01000
C2459       C  0.76915695  0.83173419  0.62739128     0.04000
C2460       C  0.79893302  0.84851285  0.61519088    -0.03900
C2461       C  0.80474101  0.85821983  0.57456332    -0.01000
C2462       C  0.78057781  0.85234527  0.54696545     0.04000
C2463       C  0.71390202  0.81146175  0.61307333     0.38600
C2464       C  0.83434976  0.87715768  0.56118280     0.38600
C2465       C  0.78613282  0.86111261  0.50476130     0.37000
C2466       C  0.76283305  0.82107622  0.66869392     0.37000
N2467       N  0.79069241  0.86786891  0.47112960    -0.37800
N2468       N  0.75708085  0.81262310  0.70150480    -0.37800
N2469       N  0.85686895  0.89270970  0.54769159    -0.37200
N2470       N  0.68930533  0.79917781  0.62398117    -0.37200
C2471       C  0.93255848  0.67684239  0.54431625    -0.03900
C2472       C  0.96014043  0.67054554  0.53208954    -0.01000
C2473       C  0.98040521  0.66466104  0.56120946     0.04000
C2474       C  0.97349508  0.66420215  0.60290262    -0.03900
C2475       C  0.94693324  0.67166350  0.61526738    -0.01000
C2476       C  0.92646690  0.67746061  0.58661463     0.04000
C2477       C  0.96904772  0.67147948  0.48970928     0.38600
C2478       C  0.94285004  0.67779528  0.65779909     0.38600
C2479       C  0.89974158  0.68512945  0.60179430     0.35800
C2480       C  0.00971997  0.66174000  0.54812208     0.37000
N2481       N  0.87874807  0.69153323  0.61443040    -0.37800
N2482       N  0.03313372  0.66030578  0.53628868    -0.37800
N2483       N  0.93986619  0.68414812  0.69127712    -0.37200
N2484       N  0.97652832  0.67213335  0.45609408    -0.37200
C2485       C  0.84773512  0.57796487  0.41346882    -0.03900
C2486       C  0.86916076  0.56202894  0.42276348    -0.01000
C2487       C  0.87042706  0.53650476  0.39912258     0.04000
C2488       C  0.85020161  0.52651711  0.36624122    -0.03900
C2489       C  0.83013412  0.54352195  0.35564545    -0.01000
C2490       C  0.82822784  0.56850772  0.37972664     0.04000
C2491       C  0.88965466  0.57141398  0.45717341     0.38600
C2492       C  0.81360358  0.53721875  0.31764584     0.38600
C2493       C  0.80715977  0.58541026  0.36854310     0.37000
C2494       C  0.89304692  0.52113636  0.40843913     0.37000
N2495       N  0.79036807  0.59898998  0.36008430    -0.37800
N2496       N  0.91158972  0.50962963  0.41679039    -0.37800
N2497       N  0.80093444  0.53340331  0.28685446    -0.37200
N2498       N  0.90613696  0.57871228  0.48448455    -0.37200
C2499       C  0.75381387  0.58489705  0.55630974    -0.03900
C2500       C  0.73763698  0.56249500  0.52814688    -0.01000
C2501       C  0.70871226  0.54280021  0.53873351     0.04000
C2502       C  0.69666835  0.54487292  0.57772014    -0.03900
C2503       C  0.71498055  0.56417685  0.60741192    -0.01000
C2504       C  0.74358796  0.58404636  0.59672690     0.04000
C2505       C  0.74906087  0.56172326  0.48720290     0.38600
C2506       C  0.70471621  0.56375886  0.64906952     0.38600
C2507       C  0.76186141  0.60490058  0.62684105     0.37000
C2508       C  0.69029919  0.52199365  0.50874575     0.37000
N2509       N  0.77636409  0.62162045  0.65076845    -0.37800
N2510       N  0.67553422  0.50544564  0.48485325    -0.37800
N2511       N  0.69830656  0.56306697  0.68306300    -0.37200
N2512       N  0.75810068  0.56092496  0.45452812    -0.37200
C2513       C  0.74345013  0.66114440  0.43847234    -0.03900
C2514       C  0.71345618  0.64289415  0.44843352    -0.01000
C2515       C  0.68825478  0.64144109  0.42247159     0.04000
C2516       C  0.69216857  0.65999107  0.38790333    -0.03900
C2517       C  0.72263260  0.67553755  0.37581713    -0.01000
C2518       C  0.74795517  0.67647709  0.40116110     0.04000
C2519       C  0.70814472  0.62617288  0.48604272     0.38600
C2520       C  0.72801030  0.68949055  0.33629438     0.38600
C2521       C  0.77861665  0.69415203  0.38955157     0.37000
C2522       C  0.65894889  0.61919349  0.42974313     0.37000
N2523       N  0.80313716  0.70834240  0.38058122    -0.37800
N2524       N  0.63598722  0.60056061  0.43541520    -0.37800
N2525       N  0.73236146  0.70016053  0.30441177    -0.37200
N2526       N  0.70325454  0.61303052  0.51621837    -0.37200
C2527       C  0.93679296  0.82684657  0.39124239    -0.03900
C2528       C  0.92130658  0.80292113  0.36438460    -0.01000
C2529       C  0.91057743  0.77252506  0.37806802     0.04000
C2530       C  0.91546246  0.76571709  0.41861387    -0.03900
C2531       C  0.93191738  0.78928073  0.44485075    -0.01000
C2532       C  0.94024126  0.81981181  0.43219653     0.04000
C2533       C  0.91431449  0.80948042  0.32334218     0.38600
C2534       C  0.93957231  0.78221066  0.48561161     0.38600
C2535       C  0.44659231  0.84328461  0.46329641     0.37000
C2536       C  0.89352311  0.74849493  0.35073490     0.37000
N2537       N  0.44963194  0.86022757  0.49032194    -0.37800
N2538       N  0.88000757  0.72932108  0.32891760    -0.37800
N2539       N  0.94573068  0.77655190  0.51799734    -0.37200
N2540       N  0.90750322  0.81399896  0.29081883    -0.37200
C2541       C  0.85504942  0.82696659  0.62620387    -0.03900
C2542       C  0.83759791  0.79878328  0.64271353    -0.01000
C2543       C  0.83207469  0.77119956  0.62013563     0.04000
C2544       C  0.84378268  0.77131169  0.58039387    -0.03900
C2545       C  0.86264589  0.79926759  0.56489773    -0.01000
C2546       C  0.86980179  0.82638835  0.58885004     0.04000
C2547       C  0.82554978  0.79824745  0.68341772     0.38600
C2548       C  0.87145783  0.80104031  0.52267056     0.38600
C2549       C  0.89330982  0.85336100  0.57606849     0.37000
C2550       C  0.81404718  0.74272536  0.63783285     0.37000
N2551       N  0.91267133  0.87473908  0.56641058    -0.37800
N2552       N  0.79963368  0.72004067  0.65200369    -0.37800
N2553       N  0.87720951  0.80269531  0.48847116    -0.37200
N2554       N  0.81606612  0.79754415  0.71605355    -0.37200
C2555       C  0.90911941  0.50734415  0.16715716    -0.03900
C2556       C  0.91874534  0.53571720  0.18760258    -0.01000
C2557       C  0.94985667  0.54764312  0.19990710     0.04000
C2558       C  0.96988667  0.52925019  0.19738219    -0.03900
C2559       C  0.96222598  0.50597023  0.16673304    -0.01000
C2560       C  0.93172993  0.49433615  0.15321814     0.04000
C2561       C  0.89718203  0.55283509  0.19484205     0.38600
C2562       C  0.98375651  0.99161329  0.14521145     0.38600
C2563       C  0.92195670  0.96567252  0.12545351     0.37000
C2564       C  0.96299309  0.58030623  0.20373505     0.37000
N2565       N  0.91471433  0.94459800  0.10401281    -0.37800
N2566       N  0.97336385  0.60659518  0.20483554    -0.37800
N2567       N  0.00060923  0.98212677  0.12677404    -0.37200
N2568       N  0.87995003  0.56662145  0.20023668    -0.37200
C2569       C  0.52312004  0.96881532  0.20830004    -0.03900
C2570       C  0.55509934  0.95165183  0.20553244    -0.01000
C2571       C  0.54805792  0.91089662  0.21428138     0.04000
C2572       C  0.50910561  0.88635081  0.22609704    -0.03900
C2573       C  0.97777303  0.90374693  0.23204040    -0.01000
C2574       C  0.98433460  0.94436363  0.22315625     0.04000
C2575       C  0.58617706  0.96946435  0.19852881     0.38600
C2576       C  0.94732494  0.88600405  0.24267372     0.38600
C2577       C  0.95901546  0.95605518  0.23115114     0.37000
C2578       C  0.57385168  0.89908646  0.21116074     0.37000
N2579       N  0.93720402  0.96325861  0.23751452    -0.37800
N2580       N  0.59566005  0.89119275  0.20919281    -0.37800
N2581       N  0.92252452  0.87313171  0.25201482    -0.37200
N2582       N  0.61151927  0.98224712  0.19164882    -0.37200
C2583       C  0.62368913  0.61725474  0.15254840    -0.03900
C2584       C  0.61682644  0.58561175  0.14686007    -0.01000
C2585       C  0.59424361  0.56541136  0.17092873     0.04000
C2586       C  0.58008552  0.57658808  0.20397077    -0.03900
C2587       C  0.58941896  0.60851547  0.21156940    -0.01000
C2588       C  0.61245958  0.62832728  0.18766919     0.04000
C2589       C  0.63006308  0.57407736  0.11233810     0.38600
C2590       C  0.57160210  0.62187265  0.23849740     0.38600
C2591       C  0.62038982  0.66106390  0.19457093     0.37000
C2592       C  0.58280561  0.53428578  0.15620623     0.37000
N2593       N  0.62629329  0.68711935  0.20023007    -0.37800
N2594       N  0.57305839  0.00888905  0.13813237    -0.37800
N2595       N  0.55722471  0.63312382  0.25891911    -0.37200
N2596       N  0.64037441  0.56439476  0.08506485    -0.37200
C2597       C  0.56594951  0.76992129  0.93244054    -0.03900
C2598       C  0.55835450  0.74749933  0.96324331    -0.01000
C2599       C  0.54480349  0.71645869  0.95307928     0.04000
C2600       C  0.53769324  0.70739837  0.91243574    -0.03900
C2601       C  0.54168645  0.73010462  0.88249814    -0.01000
C2602       C  0.55516019  0.76128240  0.89268903     0.04000
C2603       C  0.56653387  0.75546054  0.00530642     0.38600
C2604       C  0.53451521  0.72150763  0.84047219     0.38600
C2605       C  0.55821386  0.78449841  0.86214172     0.37000
C2606       C  0.54064678  0.69366992  0.98441470     0.37000
N2607       N  0.56019160  0.80297486  0.83781883    -0.37800
N2608       N  0.53790345  0.67618879  0.01020720    -0.37800
N2609       N  0.52916390  0.71548942  0.80660586    -0.37200
N2610       N  0.57279077  0.76134881  0.03899724    -0.37200
C2611       C  0.65014852  0.75820195  0.01653243    -0.03900
C2612       C  0.66077292  0.75790904  0.05667889    -0.01000
C2613       C  0.65978344  0.72996276  0.07501108     0.04000
C2614       C  0.64792035  0.70215008  0.05356350    -0.03900
C2615       C  0.64009580  0.70269091  0.01228093    -0.01000
C2616       C  0.64135753  0.73041766  0.99372939     0.04000
C2617       C  0.67201664  0.78616038  0.07977100     0.38600
C2618       C  0.62747300  0.67451630  0.98938875     0.38600
C2619       C  0.63130974  0.72942348  0.95173989     0.37000
C2620       C  0.66819559  0.72995807  0.11727767     0.37000
N2621       N  0.62354148  0.72864664  0.91827949    -0.37800
N2622       N  0.67506635  0.73111943  0.15108942    -0.37800
N2623       N  0.61677380  0.65301066  0.96961023    -0.37200
N2624       N  0.68086271  0.80857621  0.09843815    -0.37200
C2625       C  0.65664625  0.94670019  0.94146796    -0.03900
C2626       C  0.63313580  0.96127093  0.94530397    -0.01000
C2627       C  0.63172164  0.98463638  0.91832179     0.04000
C2628       C  0.65364668  0.99383178  0.88712540    -0.03900
C2629       C  0.67390000  0.97647431  0.87966169    -0.01000
C2630       C  0.67582503  0.95343195  0.90654028     0.04000
C2631       C  0.60974947  0.95230337  0.97648929     0.38600
C2632       C  0.69217337  0.98173272  0.84295523     0.38600
C2633       C  0.69768441  0.93692961  0.89695723     0.37000
C2634       C  0.60765304  0.99897241  0.92381149     0.37000
N2635       N  0.71527761  0.92419885  0.88826013    -0.37800
N2636       N  0.58807712  0.50648101  0.92375070    -0.37800
N2637       N  0.70644599  0.98532324  0.81342653    -0.37200
N2638       N  0.59093035  0.94527422  0.00108526    -0.37200
C2639       C  0.52237592  0.84196211  0.15798554    -0.03900
C2640       C  0.51729526  0.85093080  0.11857847    -0.01000
C2641       C  0.54056037  0.85541101  0.08894837     0.04000
C2642       C  0.56836857  0.84928800  0.09800180    -0.03900
C2643       C  0.57271980  0.83857684  0.13677029    -0.01000
C2644       C  0.54986220  0.83511126  0.16668033     0.04000
C2645       C  0.98791728  0.85484941  0.10835590     0.38600
C2646       C  0.60108102  0.83194011  0.14627555     0.38600
C2647       C  0.55421894  0.82390818  0.20649392     0.37000
C2648       C  0.53577852  0.86594691  0.04895837     0.37000
N2649       N  0.55765798  0.81512335  0.23834415    -0.37800
N2650       N  0.53201987  0.87441628  0.01704411    -0.37800
N2651       N  0.62371286  0.82668431  0.15387683    -0.37200
N2652       N  0.96443231  0.85790505  0.09993249    -0.37200
C2653       C  0.80244891  0.95396662  0.11508567    -0.03900
C2654       C  0.80156970  0.95898418  0.07285842    -0.01000
C2655       C  0.77334767  0.95079711  0.05206906     0.04000
C2656       C  0.74669935  0.93319538  0.07148197    -0.03900
C2657       C  0.74744601  0.92713154  0.11319879    -0.01000
C2658       C  0.77487760  0.93833681  0.13521815     0.04000
C2659       C  0.82939235  0.96795494  0.04913040     0.38600
C2660       C  0.72025020  0.90807465  0.13320726     0.38600
C2661       C  0.77469188  0.93239294  0.17838081     0.37000
C2662       C  0.77156153  0.96071223  0.01080174     0.37000
N2663       N  0.77584428  0.42963093  0.21070605    -0.37800
N2664       N  0.76997965  0.96879686  0.97800020    -0.37800
N2665       N  0.69868784  0.89272799  0.14914865    -0.37200
N2666       N  0.85076468  0.97372425  0.02842560    -0.37200
C2667       C  0.74684401  0.85190974  0.90385741    -0.03900
C2668       C  0.74449459  0.82944270  0.87282583    -0.01000
C2669       C  0.77100702  0.82552227  0.85451072     0.04000
C2670       C  0.79994812  0.84627466  0.86293663    -0.03900
C2671       C  0.80200422  0.87043892  0.89095278    -0.01000
C2672       C  0.77614828  0.87159033  0.91364209     0.04000
C2673       C  0.71483082  0.81031195  0.85888514     0.38600
C2674       C  0.82985591  0.89570470  0.89442563     0.38600
C2675       C  0.78065887  0.89114042  0.94920019     0.37000
C2676       C  0.76837037  0.79987236  0.82703336     0.37000
N2677       N  0.78523042  0.90600530  0.97835308    -0.37800
N2678       N  0.76627679  0.77941037  0.80518132    -0.37800
N2679       N  0.85155402  0.91649384  0.89699828    -0.37200
N2680       N  0.69123383  0.79504391  0.84772425    -0.37200
C2681       C  0.75739537  0.58838476  0.93407566    -0.03900
C2682       C  0.76422584  0.58077769  0.89453116    -0.01000
C2683       C  0.74077236  0.56261488  0.86955832     0.04000
C2684       C  0.70999373  0.55364873  0.88348437    -0.03900
C2685       C  0.70397548  0.55953645  0.92444657    -0.01000
C2686       C  0.72818459  0.57484996  0.95032210     0.04000
C2687       C  0.79524785  0.59268242  0.87929632     0.38600
C2688       C  0.67305528  0.55516456  0.93880731     0.38600
C2689       C  0.72265062  0.57848048  0.99316218     0.37000
C2690       C  0.74824273  0.55521004  0.82867894     0.37000
N2691       N  0.71816232  0.58095807  0.02738656    -0.37800
N2692       N  0.75457191  0.54969721  0.79606743    -0.37800
N2693       N  0.64906670  0.55343776  0.95176041    -0.37200
N2694       N  0.82006983  0.60220664  0.86744985    -0.37200
C2695       C  0.73696856  0.66081709  0.05258721    -0.03900
C2696       C  0.73413048  0.66929273  0.09353888    -0.01000
C2697       C  0.70460579  0.66659731  0.11055311     0.04000
C2698       C  0.67770954  0.65411550  0.08733313    -0.03900
C2699       C  0.68080053  0.64239574  0.04845139    -0.01000
C2700       C  0.70974333  0.64837026  0.02988351     0.04000
C2701       C  0.76156610  0.68295981  0.11699702     0.38600
C2702       C  0.65398192  0.62280883  0.02823406     0.38600
C2703       C  0.71093280  0.64329979  0.98650281     0.37000
C2704       C  0.70190408  0.67563559  0.15217669     0.37000
N2705       N  0.71117944  0.63983657  0.95171716    -0.37800
N2706       N  0.70014900  0.68255656  0.18574260    -0.37800
N2707       N  0.63273644  0.60615746  0.01287535    -0.37200
N2708       N  0.78356431  0.69413642  0.13551976    -0.37200
C2709       C  0.85087349  0.77141639  0.92977704    -0.03900
C2710       C  0.85540170  0.80058618  0.94770617    -0.01000
C2711       C  0.86019607  0.82700266  0.92325785     0.04000
C2712       C  0.85959063  0.82464992  0.88042700    -0.03900
C2713       C  0.85719387  0.79536583  0.86279989    -0.01000
C2714       C  0.85216580  0.76912174  0.88724850     0.04000
C2715       C  0.85372008  0.80324384  0.99137463     0.38600
C2716       C  0.85977184  0.79149939  0.81943628     0.38600
C2717       C  0.84676885  0.73919191  0.86836211     0.37000
C2718       C  0.86668180  0.85673453  0.94246680     0.37000
N2719       N  0.84211011  0.71529216  0.85336913    -0.37800
N2720       N  0.87252735  0.88020432  0.95888543    -0.37800
N2721       N  0.86209313  0.78747637  0.78502419    -0.37200
N2722       N  0.85205672  0.80540676  0.02621927    -0.37200
C2723       C  0.93359936  0.66884932  0.96603537    -0.03900
C2724       C  0.93762563  0.67953976  0.92532868    -0.01000
C2725       C  0.95905364  0.67180501  0.89915462     0.04000
C2726       C  0.97780865  0.65465910  0.91323472    -0.03900
C2727       C  0.97320960  0.64291237  0.95281270    -0.01000
C2728       C  0.95169968  0.64994434  0.97903634     0.04000
C2729       C  0.92106807  0.69972384  0.91023916     0.38600
C2730       C  0.49127006  0.62377093  0.96714522     0.38600
C2731       C  0.94941272  0.63783671  0.01983103     0.37000
C2732       C  0.96124903  0.68056151  0.85700503     0.37000
N2733       N  0.94795048  0.62819712  0.05229464    -0.37800
N2734       N  0.96229394  0.68690953  0.82308445    -0.37800
N2735       N  0.50526876  0.60822481  0.97879243    -0.37200
N2736       N  0.90827383  0.71611973  0.89787994    -0.37200
C2737       C  0.92345793  0.75433163  0.09676353    -0.03900
C2738       C  0.95414228  0.75481520  0.10311394    -0.01000
C2739       C  0.97142013  0.77276838  0.13468586     0.04000
C2740       C  0.95875901  0.79202513  0.15817371    -0.03900
C2741       C  0.92875731  0.79327046  0.14919141    -0.01000
C2742       C  0.91100502  0.77398962  0.11921232     0.04000
C2743       C  0.96740101  0.73563118  0.07814308     0.38600
C2744       C  0.91526560  0.81350261  0.17145428     0.38600
C2745       C  0.87902197  0.77240932  0.11382158     0.37000
C2746       C  0.50084356  0.76893057  0.14501775     0.37000
N2747       N  0.85342659  0.77075218  0.10979780    -0.37800
N2748       N  0.52398748  0.76481227  0.15276342    -0.37800
N2749       N  0.90333898  0.82906745  0.18841426    -0.37200
N2750       N  0.97798981  0.72048477  0.05804213    -0.37200
C2751       C  0.84222770  0.57078051  0.08081201    -0.03900
C2752       C  0.86490605  0.55745120  0.06678528    -0.01000
C2753       C  0.87058819  0.53284632  0.08739053     0.04000
C2754       C  0.85168610  0.51893599  0.11974245    -0.03900
C2755       C  0.82819162  0.53120682  0.13288145    -0.01000
C2756       C  0.82374389  0.55724760  0.11401711     0.04000
C2757       C  0.88200783  0.56835004  0.03003497     0.38600
C2758       C  0.80979360  0.51794889  0.16759727     0.38600
C2759       C  0.80115392  0.57078425  0.13015187     0.37000
C2760       C  0.89585774  0.52185785  0.07462877     0.37000
N2761       N  0.78310444  0.58145631  0.14337798    -0.37800
N2762       N  0.91622871  0.51385007  0.06317677    -0.37800
N2763       N  0.79525794  0.50737984  0.19546191    -0.37200
N2764       N  0.89552024  0.57662218  0.00054547    -0.37200
C2765       C  0.93998613  0.94683342  0.79393828    -0.03900
C2766       C  0.90840733  0.94210919  0.78731531    -0.01000
C2767       C  0.88657423  0.91679554  0.80430160     0.04000
C2768       C  0.89599688  0.89328160  0.82325406    -0.03900
C2769       C  0.92691806  0.89998185  0.83480729    -0.01000
C2770       C  0.94867229  0.92744528  0.82180517     0.04000
C2771       C  0.89790972  0.96255224  0.76183262     0.38600
C2772       C  0.93620041  0.87841054  0.85962802     0.38600
C2773       C  0.97996578  0.93476776  0.83588234     0.37000
C2774       C  0.85435096  0.91491812  0.80129019     0.37000
N2775       N  0.00469329  0.94028175  0.84821339    -0.37800
N2776       N  0.82882240  0.91398837  0.79873416    -0.37800
N2777       N  0.94327233  0.86113257  0.87981426    -0.37200
N2778       N  0.88838855  0.97776915  0.74105419    -0.37200
C2779       C  0.48579338  0.55494059  0.79245389    -0.03900
C2780       C  0.96825135  0.55302618  0.82854257    -0.01000
C2781       C  0.47417898  0.57799566  0.85643281     0.04000
C2782       C  0.49678205  0.60570393  0.84794029    -0.03900
C2783       C  0.51122111  0.60897510  0.80962885    -0.01000
C2784       C  0.50710122  0.58366409  0.78314095     0.04000
C2785       C  0.94526173  0.52474463  0.83865491     0.38600
C2786       C  0.53315752  0.63800970  0.79915830     0.38600
C2787       C  0.52723545  0.58765529  0.74835881     0.37000
C2788       C  0.95811150  0.57419669  0.89477690     0.37000
N2789       N  0.54389978  0.59299253  0.72110928    -0.37800
N2790       N  0.94463316  0.57013501  0.92496036    -0.37800
N2791       N  0.55103497  0.66084211  0.79087012    -0.37200
N2792       N  0.92698451  0.50237175  0.84765489    -0.37200
C2793       C  0.54672538  0.49449231  0.79373884    -0.03900
C2794       C  0.56378164  0.97633924  0.78903241    -0.01000
C2795       C  0.59404109  0.98364346  0.80408461     0.04000
C2796       C  0.60774397  0.50757162  0.82174175    -0.03900
C2797       C  0.58894349  0.52494006  0.83576103    -0.01000
C2798       C  0.55792096  0.51680492  0.82464416     0.04000
C2799       C  0.55290982  0.94967627  0.76312043     0.38600
C2800       C  0.60223760  0.55302132  0.85882438     0.38600
C2801       C  0.53899094  0.53280421  0.84472603     0.37000
C2802       C  0.61414880  0.96585025  0.79175477     0.37000
N2803       N  0.52540336  0.54570098  0.86381306    -0.37800
N2804       N  0.63020259  0.95169940  0.78180938    -0.37800
N2805       N  0.61281670  0.57542459  0.87693213    -0.37200
N2806       N  0.54593630  0.92831638  0.74221612    -0.37200
C2807       C  0.94579196  0.94259535  0.70235489    -0.03900
C2808       C  0.92655372  0.94789528  0.67170277    -0.01000
C2809       C  0.90316953  0.92330559  0.65532165     0.04000
C2810       C  0.89909416  0.89317051  0.66924817    -0.03900
C2811       C  0.92170402  0.88735506  0.69362349    -0.01000
C2812       C  0.94495152  0.91193528  0.71045053     0.04000
C2813       C  0.92812718  0.97873231  0.65991594     0.38600
C2814       C  0.91920997  0.85607432  0.70423775     0.38600
C2815       C  0.96741669  0.90509499  0.73639737     0.37000
C2816       C  0.88017829  0.93014966  0.62996065     0.37000
N2817       N  0.98444307  0.89791977  0.75702702    -0.37800
N2818       N  0.86210994  0.93717117  0.61104424    -0.37800
N2819       N  0.91709825  0.83106816  0.71253545    -0.37200
N2820       N  0.92497380  0.50173145  0.65392523    -0.37200
C2821       C  0.97953124  0.60993360  0.66643088    -0.03900
C2822       C  0.99585722  0.59146387  0.64791108    -0.01000
C2823       C  0.99444205  0.56216740  0.66364396     0.04000
C2824       C  0.97627326  0.55051116  0.69838291    -0.03900
C2825       C  0.45525621  0.56639027  0.71083444    -0.01000
C2826       C  0.45797331  0.59626600  0.69668579     0.04000
C2827       C  0.01719593  0.60374878  0.61553849     0.38600
C2828       C  0.43107649  0.55273392  0.73932641     0.38600
C2829       C  0.44014118  0.61380813  0.71632716     0.37000
C2830       C  0.01446805  0.54626494  0.64579213     0.37000
N2831       N  0.42566030  0.62695157  0.73331224    -0.37800
N2832       N  0.03080504  0.53475921  0.62973496    -0.37800
N2833       N  0.41146122  0.54305652  0.76216573    -0.37200
N2834       N  0.03473184  0.61215775  0.58975802    -0.37200
C2835       C  0.54672603  0.49736670  0.69959803    -0.03900
C2836       C  0.54630382  0.97877146  0.66971701    -0.01000
C2837       C  0.57098417  0.98433010  0.64227913     0.04000
C2838       C  0.59637186  0.50480152  0.64410586    -0.03900
C2839       C  0.59883972  0.52504539  0.67734145    -0.01000
C2840       C  0.57434972  0.52146354  0.70480726     0.04000
C2841       C  0.51958134  0.95314998  0.66144037     0.38600
C2842       C  0.62403156  0.55309390  0.67912253     0.38600
C2843       C  0.57764440  0.54449712  0.73628953     0.37000
C2844       C  0.56628738  0.97029336  0.60230487     0.37000
N2845       N  0.58237683  0.56358912  0.76079458    -0.37800
N2846       N  0.56249130  0.96001621  0.56992044    -0.37800
N2847       N  0.64262688  0.57651068  0.68027912    -0.37200
N2848       N  0.49922837  0.93215933  0.65295277    -0.37200
loop_ 
_geom_bond_atom_site_label_1 
_geom_bond_atom_site_label_2 
_geom_bond_distance 
_geom_bond_site_symmetry_2 
_ccdc_geom_bond_type 
C1            H2   1.106       .  S
C1            C7   1.546       .  S
C1          C718   1.561       .  S
C1         C1429   1.552       .  S
C3            H4   1.105       .  S
C3         C1433   1.566   1_565  S
C3          C720   1.545   1_655  S
C3         C2146   1.540       .  S
C5         C1425   1.552   1_455  S
C5            C8   1.386       .  D
C5         C1411   1.510       .  S
C6          C713   1.557   1_545  S
C6            C9   1.392       .  D
C6          C688   1.546       .  S
C7           C10   1.376       .  D
C7          C671   1.507       .  S
C8          C715   1.545   1_455  S
C8         C1369   1.515       .  S
C9         C1427   1.566   1_545  S
C9         C2067   1.523       .  S
C10        C2139   1.539       .  S
C10         C629   1.516       .  S
O11         Ni17   1.906       .  S
O11          C32   1.264       .  A
O12         Ni35   1.922   1_556  S
O12          C21   1.272       .  A
O13         Ni17   1.902       .  S
O13         Ni35   1.913       .  S
O13         Ni29   1.911       .  S
O13          H36   0.964       .  S
C14          O31   1.272       .  A
C14          O23   1.280       .  A
C14         C545   1.471       .  S
O15         Ni34   1.951       .  S
O15          C21   1.278       .  A
O16         Ni34   1.913   1_554  S
O16          C18   1.273       .  A
Ni17         O20   1.893       .  S
Ni17         O22   1.904       .  S
C18          O28   1.288       .  A
C18         C559   1.511       .  S
O19         Ni35   1.933       .  S
O19          C25   1.279       .  A
O20          C25   1.271       .  A
C21         C573   1.501       .  S
O22          C24   1.265   1_554  A
O23         Ni34   1.931       .  S
C24          O30   1.273       .  A
C24         C587   1.525       .  S
C25         C601   1.470       .  S
H26          O27   0.966       .  S
O27         Ni35   1.909   1_556  S
O27         Ni29   1.916   1_556  S
O27         Ni34   1.889       .  S
O28         Ni29   1.974       .  S
Ni29         O33   1.945       .  S
Ni29         O31   1.905   1_554  S
O30         Ni35   1.944   1_556  S
C32          O33   1.278       .  A
C32         C615   1.501       .  S
N37          C41   1.359       .  A
N37          C38   1.370       .  A
N37         C576   1.470       .  S
C38         C632   1.515       .  S
C38          C39   1.387       .  A
C39          C40   1.366       .  A
C39          H42   1.076       .  S
C40          C41   1.378       .  A
C40          H43   1.082       .  S
C41         C534   1.490       .  S
O44         Ni50   1.910       .  S
O44          C65   1.262       .  A
O45         Ni68   1.907       .  S
O45          C54   1.272       .  A
O46         Ni50   1.884       .  S
O46         Ni68   1.904   1_556  S
O46         Ni62   1.919       .  S
O46          H69   0.970       .  S
C47          O64   1.278       .  A
C47          O56   1.280       .  A
C47         C520   1.477       .  S
O48         Ni67   1.942       .  S
O48          C54   1.276       .  A
O49         Ni67   1.913       .  S
O49          C51   1.270   1_554  A
Ni50         O53   1.921       .  S
Ni50         O55   1.876       .  S
C51          O61   1.270       .  A
C51         C489   1.513       .  S
O52         Ni68   1.926   1_556  S
O52          C58   1.276       .  A
O53          C58   1.276       .  A
C54         C506   1.484       .  S
O55          C57   1.262       .  A
O56         Ni67   1.936       .  S
C57          O63   1.277   1_556  A
C57         C475   1.493   1_556  S
C58         C461   1.498       .  S
H59          O60   0.968       .  S
O60         Ni68   1.897       .  S
O60         Ni62   1.897   1_554  S
O60         Ni67   1.894       .  S
O61         Ni62   1.924       .  S
Ni62         O66   1.930       .  S
Ni62         O64   1.905   1_556  S
O63         Ni68   1.937       .  S
C65          O66   1.273       .  A
C65         C531   1.497       .  S
N70          C74   1.367       .  A
N70          C71   1.369       .  A
N70         C562   1.461       .  S
C71         C447   1.484       .  S
C71          C72   1.383       .  A
C72          C73   1.352       .  A
C72          H75   1.083       .  S
C73          C74   1.375       .  A
C73          H76   1.081       .  S
C74         C478   1.480       .  S
N77          C81   1.363       .  A
N77          C78   1.357       .  A
N77        C1204   1.452   1_545  S
C78         C660   1.474       .  S
C78          C79   1.380       .  A
C79          C80   1.366       .  A
C79          H82   1.081       .  S
C80          C81   1.382       .  A
C80          H83   1.082       .  S
C81         C548   1.491       .  S
N84          C85   1.360       .  A
N84        C1512   1.354   1_455  A
N84         C503   1.444       .  S
C85         C436   1.477       .  S
C85        C1510   1.379   1_455  A
C86          C87   1.375       .  A
C86        C1509   1.379       .  A
C86          H89   1.082       .  S
C87          C88   1.379       .  A
C87          H90   1.081       .  S
C88         C604   1.490       .  S
C88        N1508   1.354       .  A
N91          C95   1.363       .  A
N91          C92   1.367       .  A
N91        C2014   1.451   1_455  S
C92         C646   1.500   1_455  S
C92          C93   1.390       .  A
C93          C94   1.367       .  A
C93          H96   1.083       .  S
C94          C95   1.376       .  A
C94          H97   1.082       .  S
C95         C464   1.492       .  S
N98          C99   1.366       .  A
N98         C814   1.365       .  A
N98         C618   1.452   1_565  S
C99         C419   1.492   1_565  S
C99         C812   1.384       .  A
C100        C101   1.365       .  A
C100        C811   1.385       .  A
C100        H103   1.082       .  S
C101        C102   1.381       .  A
C101        H104   1.082       .  S
C102        C517   1.496       .  S
C102        N810   1.364       .  A
O105       Ni111   1.958       .  S
O105        C126   1.281       .  A
O106       Ni129   1.915       .  S
O106        C115   1.271       .  A
O107       Ni111   1.904       .  S
O107       Ni129   1.912       .  S
O107       Ni123   1.903       .  S
O107        H130   0.964       .  S
C108        O125   1.274       .  A
C108        O117   1.275       .  A
C108        C394   1.484       .  S
O109       Ni128   1.922       .  S
O109        C115   1.267       .  A
O110       Ni128   1.910       .  S
O110        C112   1.267       .  A
Ni111       O114   1.927       .  S
Ni111       O116   1.924       .  S
C112        O122   1.274       .  A
C112        C335   1.519       .  S
O113       Ni129   1.904       .  S
O113        C119   1.271       .  A
O114        C119   1.279       .  A
C115        C349   1.488       .  S
O116        C118   1.275       .  A
O117       Ni128   1.924       .  S
C118        O124   1.280       .  A
C118        C377   1.504       .  S
C119        C363   1.477       .  S
H120        O121   0.964       .  S
O121       Ni129   1.910       .  S
O121       Ni123   1.906       .  S
O121       Ni128   1.919       .  S
O122       Ni123   1.934       .  S
Ni123       O127   1.915       .  S
Ni123       O125   1.906       .  S
O124       Ni129   1.957       .  S
C126        O127   1.271       .  A
C126        C408   1.508       .  S
N131        C135   1.353       .  A
N131        C132   1.361       .  A
N131        C405   1.461       .  S
C132        C674   1.483       .  S
C132        C133   1.389       .  A
C133        C134   1.357       .  A
C133        H136   1.082       .  S
C134        C135   1.374       .  A
C134        H137   1.082       .  S
C135        C324   1.465       .  S
O138       Ni144   1.924       .  S
O138        C159   1.278       .  A
O139       Ni162   1.886       .  S
O139        C148   1.264       .  A
O140       Ni144   1.884       .  S
O140       Ni162   1.888       .  S
O140       Ni156   1.934       .  S
O140        H163   0.967       .  S
C141        O158   1.293       .  A
C141        O150   1.272       .  A
C141        C251   1.506       .  S
O142       Ni161   1.894       .  S
O142        C148   1.257       .  A
O143       Ni161   1.894       .  S
O143        C145   1.262       .  A
Ni144       O147   1.951       .  S
Ni144       O149   1.896       .  S
C145        O155   1.269       .  A
C145        C265   1.468       .  S
O146       Ni162   1.912       .  S
O146        C152   1.274       .  A
O147        C152   1.281       .  A
C148        C321   1.443       .  S
O149        C151   1.266       .  A
O150       Ni161   1.897       .  S
C151        O157   1.274       .  A
C151        C279   1.480       .  S
C152        C296   1.505       .  S
H153        O154   0.967       .  S
O154       Ni162   1.919       .  S
O154       Ni156   1.878       .  S
O154       Ni161   1.880       .  S
O155       Ni156   1.926       .  S
Ni156       O160   1.897       .  S
Ni156       O158   1.984       .  S
O157       Ni162   1.944       .  S
C159        O160   1.273       .  A
C159        C310   1.474       .  S
N164        C168   1.369       .  A
N164        C165   1.374       .  A
N164        C994   1.472   1_545  S
C165        C702   1.484       .  S
C165        C166   1.379       .  A
C166        C167   1.356       .  A
C166        H169   1.083       .  S
C167        C168   1.377       .  A
C167        H170   1.082       .  S
C168        C366   1.478       .  S
N171       C1599   1.366       .  A
N171       C1596   1.376       .  A
N171        C338   1.450       .  S
C172       C2109   1.518       .  S
C172       N1595   1.376       .  A
C172        C173   1.380   1_655  A
C173        C174   1.371       .  A
C173        H176   1.077       .  S
C174        C175   1.380       .  A
C174        H177   1.082       .  S
C175        C254   1.503       .  S
C175       N1595   1.366   1_455  A
N178        C179   1.360       .  A
N178       C1606   1.357       .  A
N178        C307   1.434   1_655  S
C179        C240   1.497   1_655  S
C179       C1604   1.383       .  A
C180        C181   1.382       .  A
C180       C1603   1.383       .  A
C180        H183   1.082       .  S
C181        C182   1.383       .  A
C181        H184   1.082       .  S
C182        C391   1.499       .  S
C182       N1602   1.357       .  A
N185        C189   1.362       .  A
N185        C186   1.369       .  A
N185        C380   1.465       .  S
C186        C226   1.499       .  S
C186        C187   1.384       .  A
C187        C188   1.362       .  A
C187        H190   1.081       .  S
C188        C189   1.377       .  A
C188        H191   1.082       .  S
C189        C268   1.484       .  S
N192        C193   1.370       .  A
N192        C908   1.367       .  A
N192        C352   1.448   1_565  S
C193        C209   1.511   1_565  S
C193        C906   1.386       .  A
C194        C195   1.373       .  A
C194        C905   1.386       .  A
C194        H197   1.082       .  S
C195        C196   1.379       .  A
C195        H198   1.082       .  S
C196        C293   1.506       .  S
C196        N904   1.367       .  A
C199        H200   1.100       .  S
C199        C203   1.540       .  S
C199        C917   1.535   1_545  S
C199       C1628   1.542   1_455  S
C201        H202   1.106       .  S
C201        C206   1.559       .  S
C201       C1631   1.586   1_455  S
C201        C920   1.563   1_545  S
C203        C206   1.388       .  D
C203        C450   1.523       .  S
C204       C1623   1.542       .  S
C204        C207   1.407       .  D
C204        C422   1.537       .  S
C205        C911   1.536       .  S
C205        C208   1.323       .  D
C205        C433   1.402       .  S
C206        C223   1.517       .  S
C207       C1625   1.586       .  S
C207        C212   1.545       .  S
C208        C913   1.566       .  S
C208        C237   1.548       .  S
C209        C210   1.413       .  A
C209        C926   1.413   1_545  A
C210        C211   1.428       .  A
C210        C215   1.445       .  S
C211        C212   1.418       .  A
C211        C218   1.444       .  S
C212        C925   1.416   1_545  A
C213        C214   1.414       .  A
C213        C924   1.415       .  A
C213        C216   1.431       .  S
C214        C921   1.411       .  A
C214        C217   1.455       .  S
C215        N222   1.157       .  T
C216        N221   1.152       .  T
C217        N219   1.157       .  T
C218        N220   1.157       .  T
C223        C224   1.409       .  A
C223        C228   1.420       .  A
C224        C225   1.414       .  A
C224        C229   1.448       .  S
C225        C226   1.424       .  A
C225        C232   1.450       .  S
C226        C227   1.405       .  A
C227        C228   1.418       .  A
C227        C230   1.450       .  S
C228        C231   1.441       .  S
C229        N236   1.156       .  T
C230        N235   1.157       .  T
C231        N233   1.154       .  T
C232        N234   1.158       .  T
C237        C238   1.568       .  A
C237        C242   1.420       .  A
C238        C239   1.517       .  A
C238        C243   2.747       .  S
C239        C240   1.398       .  A
C239        C246   1.456       .  S
C240        C241   1.390       .  A
C241        C242   1.393       .  A
C241        C244   1.443       .  S
C242        C245   1.451       .  S
C243        N250   1.161       .  T
C244       N1673   1.157       .  T
C245        N247   1.157       .  T
C246        N248   1.158       .  T
N249       C1668   1.157       .  T
C251        C252   1.414       .  A
C251        C256   1.424       .  A
C252        C253   1.425       .  A
C252        C257   1.449       .  S
C253        C254   1.419       .  A
C253        C260   1.447   1_455  S
C254        C255   1.410       .  A
C255        C256   1.409       .  A
C255        C258   1.454       .  S
C256        C259   1.454       .  S
C257        N264   1.157       .  T
C258        N263   1.157       .  T
C259        N261   1.158       .  T
C260       N1686   1.157       .  T
N262       C1684   1.157       .  T
C265        C266   1.410       .  A
C265        C270   1.406       .  A
C266        C267   1.410       .  A
C266        C271   1.452       .  S
C267        C268   1.415       .  A
C267        C274   1.450       .  S
C268        C269   1.414       .  A
C269        C270   1.404       .  A
C269        C272   1.446       .  S
C270        C273   1.453       .  S
C271        N278   1.158       .  T
C272        N277   1.156       .  T
C273        N275   1.157       .  T
C274        N276   1.157       .  T
C279        C280   1.411       .  A
C279        C284   1.408       .  A
C280        C281   1.413       .  A
C280        C285   1.450       .  S
C281        C282   1.411       .  A
C281        C288   1.441       .  S
C282        N876   1.473       .  S
C282        C283   1.416       .  A
C283        C284   1.410       .  A
C283        C998   1.444       .  S
C284        C287   1.447       .  S
C285        N292   1.157       .  T
C286        C995   1.444       .  S
C286        N291   1.158   1_565  T
C287        N289   1.157       .  T
C288        N290   1.157       .  T
C293        C294   1.416       .  A
C293        C298   1.417       .  A
C294        C295   1.419       .  A
C294        C299   1.448       .  S
C295        C296   1.417       .  A
C295        C302   1.452       .  S
C296        C297   1.416       .  A
C297        C298   1.416       .  A
C297        C300   1.452       .  S
C298       C1013   1.450       .  S
C299        N306   1.157       .  T
C300        N305   1.157       .  T
C301       C1010   1.450       .  S
C301        N303   1.157       .  T
C302        N304   1.157       .  T
C307        C308   1.405       .  A
C307        C312   1.409       .  A
C308        C309   1.400       .  A
C308        C313   1.450   1_455  S
C309        C310   1.411       .  A
C309        C316   1.447       .  S
C310        C311   1.409       .  A
C311        C312   1.409       .  A
C311        C314   1.450       .  S
C312        C315   1.444       .  S
C313        N320   1.158       .  T
C314        N319   1.157       .  T
C315        N317   1.156   1_455  T
C316        N318   1.155       .  T
C321        C322   1.407       .  A
C321        C326   1.398       .  A
C322        C323   1.396       .  A
C322        C327   1.454       .  S
C323        C324   1.412       .  A
C323        C330   1.452       .  S
C324        C325   1.417       .  A
C325        C326   1.397       .  A
C325        C328   1.447       .  S
C326        C329   1.454       .  S
C327        N334   1.157       .  T
C328        N333   1.157       .  T
C329        N331   1.157       .  T
C330        N332   1.157       .  T
C335        C336   1.430       .  A
C335        C340   1.424       .  A
C336        C337   1.419       .  A
C336        C341   1.452       .  S
C337        C338   1.408       .  A
C337        C344   1.449       .  S
C338        C339   1.412       .  A
C339        C340   1.413       .  A
C339        C342   1.451       .  S
C340        C343   1.452       .  S
C341        N348   1.158       .  T
C342        N347   1.157       .  T
C343        N345   1.158       .  T
C344        N346   1.157       .  T
C349        C350   1.419       .  A
C349        C354   1.410       .  A
C350        C351   1.414       .  A
C350        C355   1.452       .  S
C351        C352   1.409       .  A
C351        C358   1.447       .  S
C352        C353   1.415       .  A
C353        C354   1.409       .  A
C353        C356   1.447       .  S
C354        C357   1.453       .  S
C355        N362   1.157       .  T
C356        N361   1.157       .  T
C357        N359   1.158       .  T
C358        N360   1.157       .  T
C363        C364   1.414       .  A
C363        C368   1.409       .  A
C364        C365   1.411       .  A
C364        C369   1.451       .  S
C365        C366   1.412       .  A
C365        C372   1.451       .  S
C366        C367   1.410       .  A
C367        C368   1.402       .  A
C367        C370   1.449       .  S
C368        C371   1.453       .  S
C369        N376   1.157       .  T
C370        N375   1.156       .  T
C371        N373   1.157       .  T
C372        N374   1.157       .  T
C377        C378   1.419       .  A
C377        C382   1.409       .  A
C378        C379   1.422       .  A
C378        C383   1.448       .  S
C379        C380   1.409       .  A
C379        C386   1.446       .  S
C380        C381   1.423       .  A
C381        C382   1.419       .  A
C381        C384   1.448       .  S
C382        C385   1.450       .  S
C383        N390   1.157       .  T
C384        N389   1.157       .  T
C385        N387   1.157       .  T
C386        N388   1.158       .  T
C391        C392   1.419       .  A
C391        C396   1.412       .  A
C392        C393   1.414       .  A
C392        C397   1.448       .  S
C393        C394   1.412       .  A
C393        C400   1.452       .  S
C394        C395   1.408       .  A
C395        C396   1.405       .  A
C395        C398   1.454       .  S
C396       C1823   1.444       .  S
C397        N404   1.156       .  T
C398        N403   1.157       .  T
C399       C1820   1.444       .  S
C399        N401   1.156       .  T
C400        N402   1.157       .  T
C405        C406   1.418       .  A
C405        C410   1.407       .  A
C406        C407   1.418       .  A
C406        C411   1.448       .  S
C407        C408   1.415       .  A
C407        C414   1.450       .  S
C408        C409   1.417       .  A
C409        C410   1.420       .  A
C409        C412   1.446       .  S
C410        C413   1.445       .  S
C411        N418   1.157       .  T
C412        N417   1.156       .  T
C413        N415   1.157       .  T
C414        N416   1.157       .  T
C419        C420   1.409       .  A
C419        C424   1.411   1_545  A
C420        C421   1.421       .  A
C420        C425   1.445       .  S
C421        C422   1.413       .  A
C421        C428   1.443       .  S
C422        C423   1.427       .  A
C423        C424   1.408   1_545  A
C423       C1138   1.446   1_545  S
C424       C1139   1.456       .  S
C425        N432   1.157       .  T
C426       C1135   1.445       .  S
C426        N431   1.157       .  T
C427       C1136   1.456       .  S
C427        N429   1.157       .  T
C428        N430   1.157       .  T
C433        C434   1.855       .  A
C433       C1862   1.864   1_455  A
C434        C435   1.824       .  A
C434        C439   1.434       .  S
C435        C436   1.846       .  A
C435        C442   1.437       .  S
C436       C1861   1.841   1_455  A
C437        C438   1.823       .  A
C437       C1860   1.841       .  A
C437        C440   1.434       .  S
C438       C1857   1.864       .  A
C438        C441   1.433       .  S
C439        N446   1.157       .  T
C440        N445   1.156       .  T
C441        N443   1.156       .  T
C442        N444   1.157       .  T
C447        C448   1.402       .  A
C447        C452   1.414       .  A
C448        C449   1.416       .  A
C448        C453   1.453       .  S
C449        C450   1.431       .  A
C449        C456   1.446       .  S
C450        C451   1.417       .  A
C451        C452   1.415       .  A
C451        C454   1.450       .  S
C452        C455   1.451       .  S
C453        N460   1.157       .  T
C454        N459   1.157       .  T
C455        N457   1.157       .  T
C456       N1170   1.157       .  T
N458       C1168   1.157       .  T
C461        C462   1.421       .  A
C461        C466   1.413       .  A
C462        C463   1.410       .  A
C462        C467   1.452   1_556  S
C463        C464   1.409       .  A
C463        C470   1.450       .  S
C464        C465   1.415       .  A
C465        C466   1.416       .  A
C465        C468   1.449       .  S
C466        C469   1.451       .  S
C467        N474   1.157       .  T
C468        N473   1.157       .  T
C469        N471   1.157       .  T
C470        N472   1.156   1_556  T
C475        C476   1.415       .  A
C475        C480   1.425   1_554  A
C476        C477   1.412       .  A
C476        C481   1.451       .  S
C477        C478   1.411       .  A
C477        C484   1.448       .  S
C478        C479   1.411       .  A
C479        C480   1.403   1_554  A
C479        C482   1.453   1_554  S
C480        C483   1.458       .  S
C481        N488   1.157       .  T
C482        N487   1.157       .  T
C483        N485   1.158       .  T
C484        N486   1.156       .  T
C489        C490   1.424       .  A
C489        C494   1.426       .  A
C490        C491   1.416       .  A
C490        C495   1.454       .  S
C491        C492   1.414       .  A
C491        C498   1.447       .  S
C492        N789   1.453       .  S
C492        C493   1.407       .  A
C493        C494   1.409       .  A
C493        C496   1.451       .  S
C494        C497   1.451       .  S
C495        N502   1.158       .  T
C496        N501   1.157       .  T
C497        N499   1.157       .  T
C498       N1212   1.157       .  T
N500       C1210   1.157   1_545  T
C503        C504   1.408       .  A
C503        C508   1.412       .  A
C504        C505   1.413       .  A
C504       C1933   1.447   1_455  S
C505        C506   1.413       .  A
C505        C512   1.449       .  S
C506        C507   1.412       .  A
C507        C508   1.411       .  A
C507        C510   1.451       .  S
C508        C511   1.452       .  S
C509       C1928   1.447       .  S
C509        N516   1.157       .  T
C510        N515   1.157       .  T
C511        N513   1.157       .  T
C512        N514   1.157       .  T
C517        C518   1.418       .  A
C517        C522   1.419       .  A
C518        C519   1.412       .  A
C518        C523   1.446       .  S
C519        C520   1.406       .  A
C519        C526   1.452       .  S
C520        C521   1.410       .  A
C521        C522   1.407       .  A
C521        C524   1.454       .  S
C522        C525   1.453       .  S
C523        N530   1.157       .  T
C524        N529   1.157       .  T
C525       N1239   1.157       .  T
C526        N528   1.157   1_554  T
N527       C1237   1.157       .  T
C531        C532   1.423       .  A
C531        C536   1.412       .  A
C532        C533   1.408       .  A
C532        C537   1.453       .  S
C533        C534   1.409       .  A
C533        C540   1.452       .  S
C534        C535   1.415       .  A
C535        C536   1.410       .  A
C535        C538   1.450       .  S
C536        C539   1.446       .  S
C537        N544   1.157       .  T
C538        N543   1.158       .  T
C539        N541   1.156       .  T
C540        N542   1.157       .  T
C545        C546   1.404       .  A
C545        C550   1.404       .  A
C546        C547   1.408       .  A
C546        C551   1.451       .  S
C547        C548   1.420       .  A
C547        C554   1.451       .  S
C548        C549   1.417       .  A
C549        C550   1.408       .  A
C549        C552   1.446       .  S
C550        C553   1.452       .  S
C551        N558   1.157       .  T
C552        N557   1.156       .  T
C553        N555   1.157   1_556  T
C554        N556   1.157       .  T
C559        C560   1.417       .  A
C559        C564   1.419       .  A
C560        C561   1.431       .  A
C560        C565   1.448       .  S
C561        C562   1.416       .  A
C561        C568   1.445       .  S
C562        C563   1.408       .  A
C563        C564   1.410       .  A
C563        C566   1.448       .  S
C564        C567   1.451   1_554  S
C565        N572   1.157       .  T
C566        N571   1.157       .  T
C567        N569   1.157       .  T
C568        N570   1.157       .  T
C573        C574   1.414       .  A
C573        C578   1.408       .  A
C574        C575   1.424       .  A
C574        C579   1.448       .  S
C575        C576   1.415       .  A
C575        C582   1.445       .  S
C576        C577   1.430       .  A
C577        C578   1.416       .  A
C577        C580   1.448       .  S
C578        C581   1.453       .  S
C579        N586   1.157   1_556  T
C580        N585   1.157       .  T
C581        N583   1.157       .  T
C582        N584   1.157       .  T
C587        C588   1.429       .  A
C587        C592   1.432       .  A
C588        C589   1.421       .  A
C588        C593   1.449       .  S
C589        C590   1.404       .  A
C589        C596   1.447       .  S
C590       N1515   1.451       .  S
C590        C591   1.409       .  A
C591        C592   1.411       .  A
C591       C2018   1.453       .  S
C592        C595   1.453   1_556  S
C593        N600   1.157       .  T
C594       C2015   1.453       .  S
C594        N599   1.158   1_655  T
C595        N597   1.158       .  T
C596        N598   1.157       .  T
C601        C602   1.412       .  A
C601        C606   1.403       .  A
C602        C603   1.409       .  A
C602        C607   1.453       .  S
C603        C604   1.412       .  A
C603       C2034   1.448       .  S
C604        C605   1.421       .  A
C605        C606   1.407       .  A
C605        C608   1.447       .  S
C606        C609   1.453       .  S
C607        N614   1.157       .  T
C608        N613   1.156       .  T
C609        N611   1.157       .  T
C610       C2027   1.448   1_455  S
C610        N612   1.157       .  T
C615        C616   1.422       .  A
C615        C620   1.413       .  A
C616        C617   1.411       .  A
C616        C621   1.453       .  S
C617        C618   1.408       .  A
C617        C624   1.448       .  S
C618        C619   1.416       .  A
C619        C620   1.418       .  A
C619        C622   1.448       .  S
C620        C623   1.449       .  S
C621        N628   1.157       .  T
C622        N627   1.157       .  T
C623        N625   1.157       .  T
C624        N626   1.157       .  T
C629        C630   1.411       .  A
C629        C634   1.422       .  A
C630        C631   1.409       .  A
C630        C635   1.449       .  S
C631        C632   1.425       .  A
C631        C638   1.452       .  S
C632        C633   1.408       .  A
C633        C634   1.425       .  A
C633        C636   1.447       .  S
C634        C637   1.446       .  S
C635        N642   1.156       .  T
C636        N641   1.157       .  T
C637        N639   1.157       .  T
C638        N640   1.158       .  T
C643       C1433   1.523       .  S
C643        C648   1.425   1_655  A
C643       C2068   1.424       .  A
C644       C2067   1.424       .  A
C644       C2069   1.423       .  A
C644        C649   1.450       .  S
C645        C646   1.411       .  A
C645       C2068   1.423       .  A
C645       C2076   1.447       .  S
C646        C647   1.411   1_655  A
C647        C648   1.410       .  A
C647        C650   1.455       .  S
C648        C651   1.448       .  S
C649        N656   1.157       .  T
C650        N655   1.157       .  T
C651        N653   1.157       .  T
C652       C2069   1.447       .  S
C652        N654   1.157       .  T
C657        C720   1.517       .  S
C657        C662   1.421   1_565  A
C657       C1370   1.424       .  A
C658        C659   1.413       .  A
C658       C1369   1.425       .  A
C658        C663   1.445       .  S
C659       C1372   1.401       .  A
C659        C666   1.451       .  S
C660        C661   1.406       .  A
C660       C1371   1.402   1_545  A
C661        C662   1.405       .  A
C661        C664   1.457       .  S
C662        C665   1.442       .  S
C663        N670   1.156       .  T
C664        N669   1.157       .  T
C665        N667   1.155       .  T
C666        N668   1.157       .  T
C671        C672   1.411       .  A
C671        C676   1.423       .  A
C672        C673   1.410       .  A
C672        C677   1.451       .  S
C673        C674   1.421       .  A
C673        C680   1.452       .  S
C674        C675   1.400       .  A
C675        C676   1.412       .  A
C675        C678   1.451       .  S
C676        C679   1.445       .  S
C677       N1396   1.157       .  T
C678        N683   1.157       .  T
C679        N681   1.156       .  T
C680        N682   1.157       .  T
N684       C1389   1.157   1_545  T
C685       C1596   1.518       .  S
C685        C686   1.416       .  A
C685       C2114   1.416       .  A
C686        C687   1.429       .  A
C686        C691   1.447       .  S
C687        C688   1.427       .  A
C687        C694   1.447       .  S
C688       C2113   1.420       .  A
C689        C690   1.422       .  A
C689       C2112   1.420       .  A
C689        C692   1.448       .  S
C690       C2109   1.416       .  A
C690        C693   1.448       .  S
C691        N698   1.156       .  T
C692        N697   1.157       .  T
C693        N695   1.157       .  T
C694        N696   1.157       .  T
C699        C717   1.509       .  S
C699        C704   1.420   1_565  A
C699       C1412   1.419       .  A
C700        C701   1.410       .  A
C700       C1411   1.420       .  A
C700        C705   1.447       .  S
C701       C1414   1.406       .  A
C701        C708   1.448       .  S
C702        C703   1.411       .  A
C702       C1413   1.408   1_545  A
C703        C704   1.411       .  A
C703        C706   1.450       .  S
C704        C707   1.449       .  S
C705        N712   1.156   1_455  T
C706        N711   1.156       .  T
C707        N709   1.157       .  T
C708        N710   1.155       .  T
C713        H714   1.105       .  S
C713        C719   1.543       .  S
C713       C2141   1.551       .  S
C715        H716   1.105       .  S
C715       C2145   1.566       .  S
C715       C1434   1.539       .  S
C717       C2137   1.551   1_455  S
C717        C720   1.387       .  D
C718        C721   1.392       .  D
C718       C1400   1.547       .  S
C719        C722   1.376       .  D
C719       C1383   1.504       .  S
C721       C2139   1.566       .  S
C721       C2779   1.523       .  S
C722       C1427   1.540       .  S
C722       C1341   1.516       .  S
O723       Ni729   1.907       .  S
O723        C744   1.264       .  A
O724       Ni747   1.926   1_556  S
O724        C733   1.275       .  A
O725       Ni729   1.899       .  S
O725       Ni747   1.912       .  S
O725       Ni741   1.909       .  S
O725        H748   0.964       .  S
C726        O743   1.272       .  A
C726        O735   1.281       .  A
C726       C1257   1.471       .  S
O727       Ni746   1.951       .  S
O727        C733   1.278       .  A
O728       Ni746   1.912   1_554  S
O728        C730   1.272       .  A
Ni729       O732   1.890       .  S
Ni729       O734   1.904       .  S
C730        O740   1.287       .  A
C730       C1271   1.510       .  S
O731       Ni747   1.937       .  S
O731        C737   1.281       .  A
O732        C737   1.271       .  A
C733       C1285   1.503       .  S
O734        C736   1.265   1_554  A
O735       Ni746   1.934       .  S
C736        O742   1.274       .  A
C736       C1299   1.525       .  S
C737       C1313   1.470       .  S
H738        O739   0.966       .  S
O739       Ni747   1.908   1_556  S
O739       Ni741   1.917   1_556  S
O739       Ni746   1.888       .  S
O740       Ni741   1.975       .  S
Ni741       O745   1.949       .  S
Ni741       O743   1.905   1_554  S
O742       Ni747   1.949   1_556  S
C744        O745   1.278       .  A
C744       C1327   1.503       .  S
N749        C753   1.360       .  A
N749        C750   1.370       .  A
N749       C1288   1.471       .  S
C750       C1344   1.514       .  S
C750        C751   1.387       .  A
C751        C752   1.366       .  A
C751        H754   1.077       .  S
C752        C753   1.378       .  A
C752        H755   1.082       .  S
C753       C1246   1.491       .  S
O756       Ni762   1.908       .  S
O756        C777   1.261       .  A
O757       Ni780   1.907       .  S
O757        C766   1.271       .  A
O758       Ni762   1.886       .  S
O758       Ni780   1.902   1_556  S
O758       Ni774   1.919       .  S
O758        H781   0.970       .  S
C759        O776   1.277       .  A
C759        O768   1.280       .  A
C759       C1232   1.476       .  S
O760       Ni779   1.941       .  S
O760        C766   1.276       .  A
O761       Ni779   1.911       .  S
O761        C763   1.269   1_554  A
Ni762       O765   1.921       .  S
Ni762       O767   1.875       .  S
C763        O773   1.271       .  A
C763       C1201   1.514       .  S
O764       Ni780   1.926   1_556  S
O764        C770   1.276       .  A
O765        C770   1.277       .  A
C766       C1218   1.483       .  S
O767        C769   1.261       .  A
O768       Ni779   1.938       .  S
C769        O775   1.276   1_556  A
C769       C1187   1.490   1_556  S
C770       C1173   1.499       .  S
H771        O772   0.968       .  S
O772       Ni780   1.898       .  S
O772       Ni774   1.900   1_554  S
O772       Ni779   1.894       .  S
O773       Ni774   1.929       .  S
Ni774       O778   1.934       .  S
Ni774       O776   1.905   1_556  S
O775       Ni780   1.934       .  S
C777        O778   1.274       .  A
C777       C1243   1.499       .  S
N782        C786   1.367       .  A
N782        C783   1.369       .  A
N782       C1274   1.461       .  S
C783       C1159   1.483       .  S
C783        C784   1.384       .  A
C784        C785   1.353       .  A
C784        H787   1.083       .  S
C785        C786   1.376       .  A
C785        H788   1.082       .  S
C786       C1190   1.479       .  S
N789        C793   1.363       .  A
N789        C790   1.357       .  A
C790       C1372   1.472       .  S
C790        C791   1.381       .  A
C791        C792   1.366       .  A
C791        H794   1.083       .  S
C792        C793   1.382       .  A
C792        H795   1.082       .  S
C793       C1260   1.491       .  S
N796       C2224   1.354       .  A
N796        C797   1.359   1_655  A
N796       C1215   1.444   1_655  S
C797       C1148   1.477       .  S
C797       C2222   1.379   1_455  A
C798       C2221   1.379       .  A
C798        C799   1.375       .  A
C798        H801   1.082       .  S
C799        C800   1.380       .  A
C799        H802   1.081       .  S
C800       C1316   1.490       .  S
C800       N2220   1.354       .  A
N803        C807   1.363       .  A
N803        C804   1.369       .  A
N803       C2726   1.452   1_455  S
C804       C1358   1.502   1_455  S
C804        C805   1.389       .  A
C805        C806   1.367       .  A
C805        H808   1.083       .  S
C806        C807   1.376       .  A
C806        H809   1.081       .  S
C807       C1176   1.493       .  S
N810        C811   1.366       .  A
N810       C1330   1.451       .  S
C811       C1131   1.494       .  S
C812        C813   1.364       .  A
C812        H815   1.082       .  S
C813        C814   1.381       .  A
C813        H816   1.082       .  S
C814       C1229   1.496       .  S
O817       Ni823   1.956       .  S
O817        C838   1.280       .  A
O818       Ni841   1.916       .  S
O818        C827   1.272       .  A
O819       Ni823   1.904       .  S
O819       Ni841   1.911       .  S
O819       Ni835   1.902       .  S
O819        H842   0.966       .  S
C820        O837   1.273       .  A
C820        O829   1.275       .  A
C820       C1106   1.481       .  S
O821       Ni840   1.920       .  S
O821        C827   1.266       .  A
O822       Ni840   1.908       .  S
O822        C824   1.266       .  A
Ni823       O826   1.926       .  S
Ni823       O828   1.922       .  S
C824        O834   1.273       .  A
C824       C1047   1.518       .  S
O825       Ni841   1.901       .  S
O825        C831   1.271       .  A
O826        C831   1.278       .  A
C827       C1061   1.488       .  S
O828        C830   1.275       .  A
O829       Ni840   1.923       .  S
C830        O836   1.281       .  A
C830       C1089   1.505       .  S
C831       C1075   1.474       .  S
H832        O833   0.965       .  S
O833       Ni841   1.909       .  S
O833       Ni835   1.904       .  S
O833       Ni840   1.918       .  S
O834       Ni835   1.932       .  S
Ni835       O839   1.913       .  S
Ni835       O837   1.903       .  S
O836       Ni841   1.961       .  S
C838        O839   1.270       .  A
C838       C1120   1.505       .  S
N843        C847   1.352       .  A
N843        C844   1.359       .  A
N843       C1117   1.459       .  S
C844       C1386   1.480       .  S
C844        C845   1.388       .  A
C845        C846   1.357       .  A
C845        H848   1.080       .  S
C846        C847   1.373       .  A
C846        H849   1.082       .  S
C847       C1036   1.463       .  S
O850       Ni856   1.926       .  S
O850        C871   1.278       .  A
O851       Ni874   1.884       .  S
O851        C860   1.264       .  A
O852       Ni856   1.882       .  S
O852       Ni874   1.887       .  S
O852       Ni868   1.931       .  S
O852        H875   0.966       .  S
C853        O870   1.292       .  A
C853        O862   1.272       .  A
C853        C963   1.504       .  S
O854       Ni873   1.892       .  S
O854        C860   1.256       .  A
O855       Ni873   1.894       .  S
O855        C857   1.263       .  A
Ni856       O859   1.951       .  S
Ni856       O861   1.895       .  S
C857        O867   1.268       .  A
C857        C977   1.469       .  S
O858       Ni874   1.912       .  S
O858        C864   1.275       .  A
O859        C864   1.282       .  A
C860       C1033   1.441       .  S
O861        C863   1.266       .  A
O862       Ni873   1.896       .  S
C863        O869   1.273       .  A
C863        C991   1.479       .  S
C864       C1008   1.505       .  S
H865        O866   0.967       .  S
O866       Ni874   1.919       .  S
O866       Ni868   1.878       .  S
O866       Ni873   1.881       .  S
O867       Ni868   1.926       .  S
Ni868       O872   1.893       .  S
Ni868       O870   1.984       .  S
O869       Ni874   1.942       .  S
C871        O872   1.273       .  A
C871       C1022   1.476       .  S
N876        C880   1.367       .  A
N876        C877   1.374       .  A
C877       C1414   1.485       .  S
C877        C878   1.381       .  A
C878        C879   1.357       .  A
C878        H881   1.083       .  S
C879        C880   1.377       .  A
C879        H882   1.082       .  S
C880       C1078   1.476       .  S
N883       C2311   1.365       .  A
N883       C2308   1.376       .  A
N883       C1050   1.450       .  S
C884       C2821   1.516       .  S
C884       N2307   1.376       .  A
C884        C885   1.380   1_655  A
C885        C886   1.370       .  A
C885        H888   1.077       .  S
C886        C887   1.380       .  A
C886        H889   1.082       .  S
C887        C966   1.501       .  S
C887       N2307   1.365   1_455  A
N890       C2318   1.356       .  A
N890        C891   1.358       .  A
N890       C1019   1.433   1_655  S
C891        C952   1.495   1_655  S
C891       C2316   1.383       .  A
C892       C2315   1.383       .  A
C892        C893   1.382       .  A
C892        H895   1.082       .  S
C893        C894   1.383       .  A
C893        H896   1.082       .  S
C894       C1103   1.498       .  S
C894       N2314   1.356       .  A
N897        C901   1.363       .  A
N897        C898   1.369       .  A
N897       C1092   1.466       .  S
C898        C938   1.498       .  S
C898        C899   1.383       .  A
C899        C900   1.361       .  A
C899        H902   1.080       .  S
C900        C901   1.377       .  A
C900        H903   1.082       .  S
C901        C980   1.486       .  S
N904        C905   1.368       .  A
N904       C1064   1.447       .  S
C905        C921   1.506       .  S
C906        C907   1.374       .  A
C906        H909   1.082       .  S
C907        C908   1.379       .  A
C907        H910   1.082       .  S
C908       C1005   1.508       .  S
C911        H912   1.099       .  S
C911       C2340   1.543   1_455  S
C911        C915   1.541       .  S
C913        H914   1.106       .  S
C913       C2343   1.588   1_455  S
C913        C918   1.560       .  S
C915        C918   1.388       .  D
C915       C1162   1.523       .  S
C916       C2335   1.543       .  S
C916        C919   1.407       .  D
C916       C1134   1.544       .  S
C917        C920   1.322       .  D
C917       C1145   1.403       .  S
C918        C935   1.519       .  S
C919       C2337   1.588       .  S
C919        C924   1.541       .  S
C920        C949   1.543       .  S
C921        C922   1.412       .  A
C922        C923   1.427       .  A
C922        C927   1.446       .  S
C923        C924   1.418       .  A
C923        C930   1.444       .  S
C925        C926   1.416       .  A
C925        C928   1.433       .  S
C926        C929   1.455       .  S
C927        N934   1.157       .  T
C928        N933   1.153       .  T
C929        N931   1.157       .  T
C930        N932   1.158       .  T
C935        C936   1.409       .  A
C935        C940   1.420       .  A
C936        C937   1.415       .  A
C936        C941   1.447       .  S
C937        C938   1.424       .  A
C937        C944   1.450       .  S
C938        C939   1.404       .  A
C939        C940   1.417       .  A
C939        C942   1.450       .  S
C940        C943   1.440       .  S
C941        N948   1.156       .  T
C942        N947   1.157       .  T
C943        N945   1.154       .  T
C944        N946   1.158       .  T
C949        C950   1.567       .  A
C949        C954   1.419       .  A
C950        C951   1.517       .  A
C950        C955   2.747       .  S
C951        C952   1.397       .  A
C951        C958   1.456       .  S
C952        C953   1.389       .  A
C953        C954   1.391       .  A
C953        C956   1.443       .  S
C954        C957   1.451       .  S
C955        N962   1.161       .  T
C956       N2385   1.158       .  T
C957        N959   1.157   1_565  T
C958        N960   1.158       .  T
N961       C2380   1.158       .  T
C963        C964   1.414       .  A
C963        C968   1.423       .  A
C964        C965   1.425       .  A
C964        C969   1.449       .  S
C965        C966   1.418       .  A
C965        C972   1.447   1_455  S
C966        C967   1.410       .  A
C967        C968   1.408       .  A
C967        C970   1.454       .  S
C968        C971   1.454       .  S
C969        N976   1.157       .  T
C970        N975   1.157       .  T
C971        N973   1.158       .  T
C972       N2398   1.157       .  T
N974       C2396   1.157       .  T
C977        C978   1.411       .  A
C977        C982   1.404       .  A
C978        C979   1.412       .  A
C978        C983   1.452       .  S
C979        C980   1.417       .  A
C979        C986   1.451       .  S
C980        C981   1.414       .  A
C981        C982   1.403       .  A
C981        C984   1.445       .  S
C982        C985   1.453       .  S
C983        N990   1.158       .  T
C984        N989   1.156       .  T
C985        N987   1.157       .  T
C986        N988   1.157       .  T
C991        C992   1.410       .  A
C991        C996   1.408       .  A
C992        C993   1.411       .  A
C992        C997   1.451       .  S
C993        C994   1.412       .  A
C993       C1000   1.441       .  S
C994        C995   1.416       .  A
C995        C996   1.411       .  A
C996        C999   1.447       .  S
C997       N1004   1.157       .  T
C998       N1003   1.158       .  T
C999       N1001   1.157       .  T
C1000      N1002   1.157       .  T
C1005      C1006   1.416       .  A
C1005      C1010   1.418       .  A
C1006      C1007   1.419       .  A
C1006      C1011   1.448       .  S
C1007      C1008   1.417       .  A
C1007      C1014   1.451       .  S
C1008      C1009   1.416       .  A
C1009      C1010   1.417       .  A
C1009      C1012   1.452       .  S
C1011      N1018   1.157       .  T
C1012      N1017   1.157       .  T
C1013      N1015   1.157       .  T
C1014      N1016   1.157       .  T
C1019      C1020   1.404       .  A
C1019      C1024   1.408       .  A
C1020      C1021   1.400       .  A
C1020      C1025   1.452   1_455  S
C1021      C1022   1.413       .  A
C1021      C1028   1.448       .  S
C1022      C1023   1.412       .  A
C1023      C1024   1.408       .  A
C1023      C1026   1.450       .  S
C1024      C1027   1.445       .  S
C1025      N1032   1.158       .  T
C1026      N1031   1.157       .  T
C1027      N1029   1.156   1_455  T
C1028      N1030   1.155       .  T
C1033      C1034   1.408       .  A
C1033      C1038   1.396       .  A
C1034      C1035   1.397       .  A
C1034      C1039   1.454       .  S
C1035      C1036   1.412       .  A
C1035      C1042   1.453       .  S
C1036      C1037   1.417       .  A
C1037      C1038   1.395       .  A
C1037      C1040   1.447       .  S
C1038      C1041   1.455       .  S
C1039      N1046   1.157       .  T
C1040      N1045   1.157       .  T
C1041      N1043   1.157       .  T
C1042      N1044   1.157       .  T
C1047      C1048   1.429       .  A
C1047      C1052   1.424       .  A
C1048      C1049   1.418       .  A
C1048      C1053   1.453       .  S
C1049      C1050   1.410       .  A
C1049      C1056   1.449       .  S
C1050      C1051   1.412       .  A
C1051      C1052   1.413       .  A
C1051      C1054   1.450       .  S
C1052      C1055   1.452       .  S
C1053      N1060   1.158       .  T
C1054      N1059   1.157       .  T
C1055      N1057   1.158       .  T
C1056      N1058   1.157       .  T
C1061      C1062   1.419       .  A
C1061      C1066   1.410       .  A
C1062      C1063   1.413       .  A
C1062      C1067   1.452       .  S
C1063      C1064   1.409       .  A
C1063      C1070   1.447       .  S
C1064      C1065   1.414       .  A
C1065      C1066   1.409       .  A
C1065      C1068   1.447       .  S
C1066      C1069   1.453       .  S
C1067      N1074   1.158       .  T
C1068      N1073   1.157       .  T
C1069      N1071   1.158       .  T
C1070      N1072   1.157       .  T
C1075      C1076   1.414       .  A
C1075      C1080   1.409       .  A
C1076      C1077   1.409       .  A
C1076      C1081   1.451       .  S
C1077      C1078   1.411       .  A
C1077      C1084   1.451       .  S
C1078      C1079   1.411       .  A
C1079      C1080   1.402       .  A
C1079      C1082   1.449       .  S
C1080      C1083   1.453       .  S
C1081      N1088   1.157       .  T
C1082      N1087   1.157       .  T
C1083      N1085   1.157       .  T
C1084      N1086   1.157       .  T
C1089      C1090   1.419       .  A
C1089      C1094   1.409       .  A
C1090      C1091   1.423       .  A
C1090      C1095   1.448       .  S
C1091      C1092   1.410       .  A
C1091      C1098   1.446       .  S
C1092      C1093   1.423       .  A
C1093      C1094   1.420       .  A
C1093      C1096   1.448       .  S
C1094      C1097   1.450       .  S
C1095      N1102   1.157       .  T
C1096      N1101   1.157       .  T
C1097      N1099   1.157       .  T
C1098      N1100   1.158       .  T
C1103      C1104   1.418       .  A
C1103      C1108   1.413       .  A
C1104      C1105   1.413       .  A
C1104      C1109   1.448       .  S
C1105      C1106   1.411       .  A
C1105      C1112   1.452       .  S
C1106      C1107   1.409       .  A
C1107      C1108   1.406       .  A
C1107      C1110   1.455       .  S
C1108      C2535   1.444       .  S
C1109      N1116   1.156       .  T
C1110      N1115   1.157       .  T
C1111      C2532   1.444       .  S
C1111      N1113   1.157       .  T
C1112      N1114   1.157       .  T
C1117      C1118   1.417       .  A
C1117      C1122   1.407       .  A
C1118      C1119   1.417       .  A
C1118      C1123   1.448       .  S
C1119      C1120   1.414       .  A
C1119      C1126   1.451       .  S
C1120      C1121   1.417       .  A
C1121      C1122   1.419       .  A
C1121      C1124   1.446       .  S
C1122      C1125   1.445       .  S
C1123      N1130   1.157       .  T
C1124      N1129   1.156       .  T
C1125      N1127   1.157       .  T
C1126      N1128   1.157       .  T
C1131      C1132   1.408       .  A
C1131      C1136   1.409       .  A
C1132      C1133   1.423       .  A
C1132      C1137   1.446       .  S
C1133      C1134   1.416       .  A
C1133      C1140   1.443       .  S
C1134      C1135   1.428       .  A
C1135      C1136   1.409       .  A
C1137      N1144   1.157       .  T
C1138      N1143   1.157       .  T
C1139      N1141   1.157       .  T
C1140      N1142   1.157       .  T
C1145      C1146   1.853       .  A
C1145      C2574   1.864   1_455  A
C1146      C1147   1.825       .  A
C1146      C1151   1.434       .  S
C1147      C1148   1.847       .  A
C1147      C1154   1.437       .  S
C1148      C2573   1.841   1_455  A
C1149      C2572   1.841       .  A
C1149      C1150   1.823       .  A
C1149      C1152   1.434       .  S
C1150      C2569   1.864       .  A
C1150      C1153   1.433       .  S
C1151      N1158   1.157       .  T
C1152      N1157   1.156       .  T
C1153      N1155   1.156       .  T
C1154      N1156   1.157       .  T
C1159      C1160   1.401       .  A
C1159      C1164   1.414       .  A
C1160      C1161   1.415       .  A
C1160      C1165   1.453       .  S
C1161      C1162   1.430       .  A
C1161      C1168   1.445       .  S
C1162      C1163   1.417       .  A
C1163      C1164   1.416       .  A
C1163      C1166   1.450       .  S
C1164      C1167   1.451       .  S
C1165      N1172   1.157       .  T
C1166      N1171   1.157       .  T
C1167      N1169   1.157       .  T
C1173      C1174   1.422       .  A
C1173      C1178   1.413       .  A
C1174      C1175   1.411       .  A
C1174      C1179   1.453   1_556  S
C1175      C1176   1.409       .  A
C1175      C1182   1.450       .  S
C1176      C1177   1.415       .  A
C1177      C1178   1.416       .  A
C1177      C1180   1.449       .  S
C1178      C1181   1.451       .  S
C1179      N1186   1.157       .  T
C1180      N1185   1.157       .  T
C1181      N1183   1.157       .  T
C1182      N1184   1.157   1_556  T
C1187      C1188   1.414       .  A
C1187      C1192   1.423   1_554  A
C1188      C1189   1.411       .  A
C1188      C1193   1.452       .  S
C1189      C1190   1.412       .  A
C1189      C1196   1.448       .  S
C1190      C1191   1.412       .  A
C1191      C1192   1.403   1_554  A
C1191      C1194   1.453   1_554  S
C1192      C1195   1.457       .  S
C1193      N1200   1.157       .  T
C1194      N1199   1.157       .  T
C1195      N1197   1.158       .  T
C1196      N1198   1.156       .  T
C1201      C1202   1.426       .  A
C1201      C1206   1.426       .  A
C1202      C1203   1.417       .  A
C1202      C1207   1.454       .  S
C1203      C1204   1.413       .  A
C1203      C1210   1.447       .  S
C1204      C1205   1.406       .  A
C1205      C1206   1.409       .  A
C1205      C1208   1.451       .  S
C1206      C1209   1.451       .  S
C1207      N1214   1.158   1_556  T
C1208      N1213   1.157       .  T
C1209      N1211   1.157       .  T
C1215      C1216   1.409       .  A
C1215      C1220   1.412       .  A
C1216      C1217   1.413       .  A
C1216      C2645   1.447   1_455  S
C1217      C1218   1.413       .  A
C1217      C1224   1.450       .  S
C1218      C1219   1.411       .  A
C1219      C1220   1.411       .  A
C1219      C1222   1.451       .  S
C1220      C1223   1.451       .  S
C1221      C2640   1.447       .  S
C1221      N1228   1.157       .  T
C1222      N1227   1.157       .  T
C1223      N1225   1.157       .  T
C1224      N1226   1.157       .  T
C1229      C1230   1.418       .  A
C1229      C1234   1.420       .  A
C1230      C1231   1.410       .  A
C1230      C1235   1.446       .  S
C1231      C1232   1.405       .  A
C1231      C1238   1.451       .  S
C1232      C1233   1.410       .  A
C1233      C1234   1.407       .  A
C1233      C1236   1.453       .  S
C1234      C1237   1.453       .  S
C1235      N1242   1.157       .  T
C1236      N1241   1.157       .  T
C1238      N1240   1.157   1_554  T
C1243      C1244   1.425       .  A
C1243      C1248   1.413       .  A
C1244      C1245   1.409       .  A
C1244      C1249   1.453       .  S
C1245      C1246   1.409       .  A
C1245      C1252   1.452       .  S
C1246      C1247   1.416       .  A
C1247      C1248   1.410       .  A
C1247      C1250   1.450       .  S
C1248      C1251   1.445       .  S
C1249      N1256   1.158       .  T
C1250      N1255   1.158       .  T
C1251      N1253   1.155       .  T
C1252      N1254   1.157       .  T
C1257      C1258   1.404       .  A
C1257      C1262   1.403       .  A
C1258      C1259   1.409       .  A
C1258      C1263   1.451       .  S
C1259      C1260   1.421       .  A
C1259      C1266   1.451       .  S
C1260      C1261   1.417       .  A
C1261      C1262   1.407       .  A
C1261      C1264   1.446       .  S
C1262      C1265   1.451       .  S
C1263      N1270   1.157       .  T
C1264      N1269   1.156       .  T
C1265      N1267   1.157   1_556  T
C1266      N1268   1.157       .  T
C1271      C1272   1.418       .  A
C1271      C1276   1.418       .  A
C1272      C1273   1.431       .  A
C1272      C1277   1.447       .  S
C1273      C1274   1.416       .  A
C1273      C1280   1.445       .  S
C1274      C1275   1.408       .  A
C1275      C1276   1.409       .  A
C1275      C1278   1.448       .  S
C1276      C1279   1.451   1_554  S
C1277      N1284   1.157       .  T
C1278      N1283   1.157       .  T
C1279      N1281   1.157       .  T
C1280      N1282   1.157       .  T
C1285      C1286   1.413       .  A
C1285      C1290   1.408       .  A
C1286      C1287   1.425       .  A
C1286      C1291   1.448       .  S
C1287      C1288   1.416       .  A
C1287      C1294   1.445       .  S
C1288      C1289   1.430       .  A
C1289      C1290   1.417       .  A
C1289      C1292   1.448       .  S
C1290      C1293   1.453       .  S
C1291      N1298   1.157   1_556  T
C1292      N1297   1.158       .  T
C1293      N1295   1.157       .  T
C1294      N1296   1.157       .  T
C1299      C1300   1.428       .  A
C1299      C1304   1.432       .  A
C1300      C1301   1.422       .  A
C1300      C1305   1.449       .  S
C1301      C1302   1.405       .  A
C1301      C1308   1.447       .  S
C1302      N2227   1.452       .  S
C1302      C1303   1.410       .  A
C1303      C1304   1.412       .  A
C1303      C2730   1.453       .  S
C1304      C1307   1.454   1_556  S
C1305      N1312   1.157       .  T
C1306      C2727   1.453       .  S
C1306      N1311   1.158   1_655  T
C1307      N1309   1.158       .  T
C1308      N1310   1.157       .  T
C1313      C1314   1.412       .  A
C1313      C1318   1.402       .  A
C1314      C1315   1.410       .  A
C1314      C1319   1.453       .  S
C1315      C1316   1.412       .  A
C1315      C2746   1.448       .  S
C1316      C1317   1.421       .  A
C1317      C1318   1.407       .  A
C1317      C1320   1.448       .  S
C1318      C1321   1.453       .  S
C1319      N1326   1.158       .  T
C1320      N1325   1.156       .  T
C1321      N1323   1.157       .  T
C1322      C2739   1.448   1_455  S
C1322      N1324   1.157       .  T
C1327      C1328   1.422       .  A
C1327      C1332   1.414       .  A
C1328      C1329   1.411       .  A
C1328      C1333   1.452       .  S
C1329      C1330   1.407       .  A
C1329      C1336   1.448       .  S
C1330      C1331   1.415       .  A
C1331      C1332   1.419       .  A
C1331      C1334   1.448       .  S
C1332      C1335   1.449       .  S
C1333      N1340   1.157       .  T
C1334      N1339   1.157       .  T
C1335      N1337   1.157       .  T
C1336      N1338   1.157       .  T
C1341      C1342   1.412       .  A
C1341      C1346   1.422       .  A
C1342      C1343   1.409       .  A
C1342      C1347   1.449       .  S
C1343      C1344   1.424       .  A
C1343      C1350   1.453       .  S
C1344      C1345   1.407       .  A
C1345      C1346   1.425       .  A
C1345      C1348   1.448       .  S
C1346      C1349   1.446       .  S
C1347      N1354   1.156       .  T
C1348      N1353   1.157       .  T
C1349      N1351   1.157       .  T
C1350      N1352   1.158       .  T
C1355      C2145   1.523       .  S
C1355      C2780   1.422       .  A
C1355      C1360   1.424   1_655  A
C1356      C2779   1.422       .  A
C1356      C2781   1.422       .  A
C1356      C1361   1.449       .  S
C1357      C2780   1.422       .  A
C1357      C1358   1.411       .  A
C1357      C2788   1.447       .  S
C1358      C1359   1.413   1_655  A
C1359      C1360   1.411       .  A
C1359      C1362   1.455       .  S
C1360      C1363   1.448       .  S
C1361      N1368   1.157       .  T
C1362      N1367   1.157       .  T
C1363      N1365   1.157       .  T
C1364      C2781   1.447       .  S
C1364      N1366   1.157       .  T
C1369      C1374   1.420       .  A
C1370      C1371   1.414       .  A
C1370      C1375   1.446       .  S
C1371      C1378   1.451       .  S
C1372      C1373   1.406       .  A
C1373      C1374   1.404       .  A
C1373      C1376   1.457       .  S
C1374      C1377   1.443       .  S
C1375      N1382   1.156       .  T
C1376      N1381   1.157       .  T
C1377      N1379   1.156       .  T
C1378      N1380   1.157       .  T
C1383      C1384   1.411       .  A
C1383      C1388   1.422       .  A
C1384      C1385   1.408       .  A
C1384      C1389   1.451       .  S
C1385      C1386   1.420       .  A
C1385      C1392   1.452       .  S
C1386      C1387   1.399       .  A
C1387      C1388   1.411       .  A
C1387      C1390   1.451       .  S
C1388      C1391   1.444       .  S
C1390      N1395   1.157       .  T
C1391      N1393   1.156       .  T
C1392      N1394   1.157       .  T
C1397      C2308   1.516       .  S
C1397      C1398   1.415       .  A
C1397      C2826   1.416       .  A
C1398      C1399   1.429       .  A
C1398      C1403   1.447       .  S
C1399      C1400   1.427       .  A
C1399      C1406   1.447       .  S
C1400      C2825   1.422       .  A
C1401      C2824   1.422       .  A
C1401      C1402   1.422       .  A
C1401      C1404   1.448       .  S
C1402      C2821   1.416       .  A
C1402      C1405   1.449       .  S
C1403      N1410   1.156       .  T
C1404      N1409   1.157       .  T
C1405      N1407   1.157       .  T
C1406      N1408   1.157       .  T
C1411      C1416   1.421       .  A
C1412      C1413   1.409       .  A
C1412      C1417   1.447       .  S
C1413      C1420   1.449       .  S
C1414      C1415   1.411       .  A
C1415      C1416   1.410       .  A
C1415      C1418   1.452       .  S
C1416      C1419   1.448       .  S
C1417      N1424   1.156   1_455  T
C1418      N1423   1.156       .  T
C1419      N1421   1.157       .  T
C1420      N1422   1.155       .  T
C1425      H1426   1.106       .  S
C1425      C1431   1.546       .  S
C1425      C2142   1.561       .  S
C1427      H1428   1.105       .  S
C1427      C2144   1.545       .  S
C1429      C1432   1.386       .  D
C1429      C2835   1.510       .  S
C1430      C2137   1.557   1_545  S
C1430      C1433   1.392       .  D
C1430      C2112   1.546       .  S
C1431      C1434   1.376       .  D
C1431      C2095   1.507       .  S
C1432      C2139   1.545       .  S
C1432      C2793   1.515       .  S
C1434      C2053   1.516       .  S
O1435     Ni1441   1.906       .  S
O1435      C1456   1.264       .  A
O1436     Ni1459   1.922   1_556  S
O1436      C1445   1.272       .  A
O1437     Ni1441   1.902       .  S
O1437     Ni1459   1.913       .  S
O1437     Ni1453   1.911       .  S
O1437      H1460   0.964       .  S
C1438      O1455   1.272       .  A
C1438      O1447   1.280       .  A
C1438      C1969   1.471       .  S
O1439     Ni1458   1.951       .  S
O1439      C1445   1.278       .  A
O1440     Ni1458   1.913   1_554  S
O1440      C1442   1.273       .  A
Ni1441     O1444   1.893       .  S
Ni1441     O1446   1.904       .  S
C1442      O1452   1.288       .  A
C1442      C1983   1.511       .  S
O1443     Ni1459   1.933       .  S
O1443      C1449   1.279       .  A
O1444      C1449   1.271       .  A
C1445      C1997   1.501       .  S
O1446      C1448   1.265   1_554  A
O1447     Ni1458   1.931       .  S
C1448      O1454   1.273       .  A
C1448      C2011   1.525       .  S
C1449      C2025   1.470       .  S
H1450      O1451   0.966       .  S
O1451     Ni1459   1.909   1_556  S
O1451     Ni1453   1.916   1_556  S
O1451     Ni1458   1.889       .  S
O1452     Ni1453   1.974       .  S
Ni1453     O1457   1.945       .  S
Ni1453     O1455   1.905   1_554  S
O1454     Ni1459   1.944   1_556  S
C1456      O1457   1.278       .  A
C1456      C2039   1.501       .  S
N1461      C1465   1.359       .  A
N1461      C1462   1.370       .  A
N1461      C2000   1.470       .  S
C1462      C2056   1.515       .  S
C1462      C1463   1.387       .  A
C1463      C1464   1.366       .  A
C1463      H1466   1.076       .  S
C1464      C1465   1.378       .  A
C1464      H1467   1.082       .  S
C1465      C1958   1.490       .  S
O1468     Ni1474   1.910       .  S
O1468      C1489   1.262       .  A
O1469     Ni1492   1.907       .  S
O1469      C1478   1.272       .  A
O1470     Ni1474   1.884       .  S
O1470     Ni1492   1.904   1_556  S
O1470     Ni1486   1.919       .  S
O1470      H1493   0.970       .  S
C1471      O1488   1.278       .  A
C1471      O1480   1.280       .  A
C1471      C1944   1.477       .  S
O1472     Ni1491   1.942       .  S
O1472      C1478   1.276       .  A
O1473     Ni1491   1.913       .  S
O1473      C1475   1.270   1_554  A
Ni1474     O1477   1.921       .  S
Ni1474     O1479   1.876       .  S
C1475      O1485   1.270       .  A
C1475      C1913   1.513       .  S
O1476     Ni1492   1.926   1_556  S
O1476      C1482   1.276       .  A
O1477      C1482   1.276       .  A
C1478      C1930   1.484       .  S
O1479      C1481   1.262       .  A
O1480     Ni1491   1.936       .  S
C1481      O1487   1.277   1_556  A
C1481      C1899   1.493   1_556  S
C1482      C1885   1.498       .  S
H1483      O1484   0.968       .  S
O1484     Ni1492   1.897       .  S
O1484     Ni1486   1.897   1_554  S
O1484     Ni1491   1.894       .  S
O1485     Ni1486   1.924       .  S
Ni1486     O1490   1.930       .  S
Ni1486     O1488   1.906   1_556  S
O1487     Ni1492   1.937       .  S
C1489      O1490   1.273       .  A
C1489      C1955   1.497       .  S
N1494      C1498   1.367       .  A
N1494      C1495   1.369       .  A
N1494      C1986   1.461       .  S
C1495      C1871   1.484       .  S
C1495      C1496   1.383       .  A
C1496      C1497   1.352       .  A
C1496      H1499   1.083       .  S
C1497      C1498   1.375       .  A
C1497      H1500   1.081       .  S
C1498      C1902   1.480       .  S
N1501      C1505   1.363       .  A
N1501      C1502   1.357       .  A
N1501      C2628   1.452   1_545  S
C1502      C2084   1.474       .  S
C1502      C1503   1.380       .  A
C1503      C1504   1.366       .  A
C1503      H1506   1.081       .  S
C1504      C1505   1.382       .  A
C1504      H1507   1.082       .  S
C1505      C1972   1.491       .  S
N1508      C1509   1.360       .  A
N1508      C1927   1.444       .  S
C1509      C1860   1.477       .  S
C1510      C1511   1.375       .  A
C1510      H1513   1.082       .  S
C1511      C1512   1.379       .  A
C1511      H1514   1.081       .  S
C1512      C2028   1.490       .  S
N1515      C1519   1.363       .  A
N1515      C1516   1.367       .  A
C1516      C2070   1.500       .  S
C1516      C1517   1.390       .  A
C1517      C1518   1.367       .  A
C1517      H1520   1.083       .  S
C1518      C1519   1.376       .  A
C1518      H1521   1.082       .  S
C1519      C1888   1.492       .  S
N1522      C2238   1.365       .  A
N1522      C1523   1.366       .  A
N1522      C2042   1.452   1_565  S
C1523      C1843   1.492   1_565  S
C1523      C2236   1.384       .  A
C1524      C2235   1.385       .  A
C1524      C1525   1.365       .  A
C1524      H1527   1.082       .  S
C1525      C1526   1.381       .  A
C1525      H1528   1.082       .  S
C1526      C1941   1.496       .  S
C1526      N2234   1.364       .  A
O1529     Ni1535   1.958       .  S
O1529      C1550   1.281       .  A
O1530     Ni1553   1.915       .  S
O1530      C1539   1.271       .  A
O1531     Ni1535   1.904       .  S
O1531     Ni1553   1.912       .  S
O1531     Ni1547   1.903       .  S
O1531      H1554   0.964       .  S
C1532      O1549   1.274       .  A
C1532      O1541   1.275       .  A
C1532      C1818   1.484       .  S
O1533     Ni1552   1.922       .  S
O1533      C1539   1.267       .  A
O1534     Ni1552   1.910       .  S
O1534      C1536   1.267       .  A
Ni1535     O1538   1.927       .  S
Ni1535     O1540   1.924       .  S
C1536      O1546   1.274       .  A
C1536      C1759   1.519       .  S
O1537     Ni1553   1.904       .  S
O1537      C1543   1.271       .  A
O1538      C1543   1.279       .  A
C1539      C1773   1.488       .  S
O1540      C1542   1.275       .  A
O1541     Ni1552   1.924       .  S
C1542      O1548   1.280       .  A
C1542      C1801   1.504       .  S
C1543      C1787   1.477       .  S
H1544      O1545   0.964       .  S
O1545     Ni1553   1.910       .  S
O1545     Ni1547   1.906       .  S
O1545     Ni1552   1.919       .  S
O1546     Ni1547   1.934       .  S
Ni1547     O1551   1.915       .  S
Ni1547     O1549   1.906       .  S
O1548     Ni1553   1.957       .  S
C1550      O1551   1.271       .  A
C1550      C1832   1.508       .  S
N1555      C1559   1.353       .  A
N1555      C1556   1.361       .  A
N1555      C1829   1.461       .  S
C1556      C2098   1.483       .  S
C1556      C1557   1.389       .  A
C1557      C1558   1.357       .  A
C1557      H1560   1.082       .  S
C1558      C1559   1.374       .  A
C1558      H1561   1.082       .  S
C1559      C1748   1.465       .  S
O1562     Ni1568   1.924       .  S
O1562      C1583   1.278       .  A
O1563     Ni1586   1.886       .  S
O1563      C1572   1.264       .  A
O1564     Ni1568   1.884       .  S
O1564     Ni1586   1.888       .  S
O1564     Ni1580   1.934       .  S
O1564      H1587   0.967       .  S
C1565      O1582   1.293       .  A
C1565      O1574   1.272       .  A
C1565      C1675   1.506       .  S
O1566     Ni1585   1.894       .  S
O1566      C1572   1.257       .  A
O1567     Ni1585   1.894       .  S
O1567      C1569   1.262       .  A
Ni1568     O1571   1.951       .  S
Ni1568     O1573   1.896       .  S
C1569      O1579   1.269       .  A
C1569      C1689   1.468       .  S
O1570     Ni1586   1.912       .  S
O1570      C1576   1.274       .  A
O1571      C1576   1.281       .  A
C1572      C1745   1.443       .  S
O1573      C1575   1.266       .  A
O1574     Ni1585   1.897       .  S
C1575      O1581   1.274       .  A
C1575      C1703   1.480       .  S
C1576      C1720   1.505       .  S
H1577      O1578   0.967       .  S
O1578     Ni1586   1.919       .  S
O1578     Ni1580   1.878       .  S
O1578     Ni1585   1.880       .  S
O1579     Ni1580   1.926       .  S
Ni1580     O1584   1.897       .  S
Ni1580     O1582   1.984       .  S
O1581     Ni1586   1.944       .  S
C1583      O1584   1.273       .  A
C1583      C1734   1.474       .  S
N1588      C1592   1.369       .  A
N1588      C1589   1.374       .  A
N1588      C2418   1.472   1_545  S
C1589      C2126   1.484       .  S
C1589      C1590   1.379       .  A
C1590      C1591   1.356       .  A
C1590      H1593   1.083       .  S
C1591      C1592   1.377       .  A
C1591      H1594   1.082       .  S
C1592      C1790   1.478       .  S
N1595      C1762   1.450       .  S
C1596      C1597   1.380       .  A
C1597      C1598   1.371       .  A
C1597      H1600   1.077       .  S
C1598      C1599   1.380       .  A
C1598      H1601   1.082       .  S
C1599      C1678   1.503       .  S
N1602      C1603   1.360       .  A
N1602      C1731   1.434       .  S
C1603      C1664   1.497       .  S
C1604      C1605   1.382       .  A
C1604      H1607   1.082       .  S
C1605      C1606   1.383       .  A
C1605      H1608   1.082       .  S
C1606      C1815   1.499       .  S
N1609      C1613   1.362       .  A
N1609      C1610   1.369       .  A
N1609      C1804   1.465       .  S
C1610      C1650   1.499       .  S
C1610      C1611   1.384       .  A
C1611      C1612   1.362       .  A
C1611      H1614   1.081       .  S
C1612      C1613   1.377       .  A
C1612      H1615   1.082       .  S
C1613      C1692   1.484       .  S
N1616      C2332   1.367       .  A
N1616      C1617   1.370       .  A
N1616      C1776   1.448   1_565  S
C1617      C1633   1.511   1_565  S
C1617      C2330   1.386       .  A
C1618      C2329   1.386       .  A
C1618      C1619   1.373       .  A
C1618      H1621   1.082       .  S
C1619      C1620   1.379       .  A
C1619      H1622   1.082       .  S
C1620      C1717   1.506       .  S
C1620      N2328   1.367       .  A
C1623      H1624   1.100       .  S
C1623      C2341   1.535   1_545  S
C1623      C1627   1.540       .  S
C1625      H1626   1.106       .  S
C1625      C1630   1.559       .  S
C1625      C2344   1.563   1_545  S
C1627      C1630   1.388       .  D
C1627      C1874   1.523       .  S
C1628      C1631   1.407       .  D
C1628      C1846   1.537       .  S
C1629      C2335   1.536       .  S
C1629      C1632   1.323       .  D
C1629      C1857   1.402       .  S
C1630      C1647   1.517       .  S
C1631      C1636   1.545       .  S
C1632      C2337   1.566       .  S
C1632      C1661   1.548       .  S
C1633      C1634   1.413       .  A
C1633      C2350   1.413   1_545  A
C1634      C1635   1.428       .  A
C1634      C1639   1.445       .  S
C1635      C1636   1.418       .  A
C1635      C1642   1.444       .  S
C1636      C2349   1.416   1_545  A
C1637      C2348   1.415       .  A
C1637      C1638   1.414       .  A
C1637      C1640   1.431       .  S
C1638      C2345   1.411       .  A
C1638      C1641   1.455       .  S
C1639      N1646   1.157       .  T
C1640      N1645   1.152       .  T
C1641      N1643   1.157       .  T
C1642      N1644   1.157       .  T
C1647      C1648   1.409       .  A
C1647      C1652   1.420       .  A
C1648      C1649   1.414       .  A
C1648      C1653   1.448       .  S
C1649      C1650   1.424       .  A
C1649      C1656   1.450       .  S
C1650      C1651   1.405       .  A
C1651      C1652   1.418       .  A
C1651      C1654   1.450       .  S
C1652      C1655   1.441       .  S
C1653      N1660   1.156       .  T
C1654      N1659   1.157       .  T
C1655      N1657   1.154       .  T
C1656      N1658   1.158       .  T
C1661      C1662   1.568       .  A
C1661      C1666   1.420       .  A
C1662      C1663   1.517       .  A
C1662      C1667   2.747       .  S
C1663      C1664   1.398       .  A
C1663      C1670   1.456       .  S
C1664      C1665   1.390       .  A
C1665      C1666   1.393       .  A
C1665      C1668   1.443       .  S
C1666      C1669   1.451       .  S
C1667      N1674   1.161       .  T
C1669      N1671   1.157       .  T
C1670      N1672   1.158       .  T
C1675      C1676   1.414       .  A
C1675      C1680   1.424       .  A
C1676      C1677   1.425       .  A
C1676      C1681   1.449       .  S
C1677      C1678   1.419       .  A
C1677      C1684   1.447       .  S
C1678      C1679   1.410       .  A
C1679      C1680   1.409       .  A
C1679      C1682   1.454       .  S
C1680      C1683   1.454       .  S
C1681      N1688   1.157       .  T
C1682      N1687   1.157       .  T
C1683      N1685   1.158       .  T
C1689      C1690   1.410       .  A
C1689      C1694   1.406       .  A
C1690      C1691   1.410       .  A
C1690      C1695   1.452       .  S
C1691      C1692   1.415       .  A
C1691      C1698   1.450       .  S
C1692      C1693   1.414       .  A
C1693      C1694   1.404       .  A
C1693      C1696   1.446       .  S
C1694      C1697   1.453       .  S
C1695      N1702   1.158       .  T
C1696      N1701   1.156       .  T
C1697      N1699   1.157       .  T
C1698      N1700   1.157       .  T
C1703      C1704   1.411       .  A
C1703      C1708   1.408       .  A
C1704      C1705   1.413       .  A
C1704      C1709   1.450       .  S
C1705      C1706   1.411       .  A
C1705      C1712   1.441       .  S
C1706      N2300   1.473       .  S
C1706      C1707   1.416       .  A
C1707      C1708   1.410       .  A
C1707      C2422   1.444       .  S
C1708      C1711   1.447       .  S
C1709      N1716   1.157       .  T
C1710      C2419   1.444       .  S
C1710      N1715   1.158   1_565  T
C1711      N1713   1.157       .  T
C1712      N1714   1.157       .  T
C1717      C1718   1.416       .  A
C1717      C1722   1.417       .  A
C1718      C1719   1.419       .  A
C1718      C1723   1.448       .  S
C1719      C1720   1.417       .  A
C1719      C1726   1.452       .  S
C1720      C1721   1.416       .  A
C1721      C1722   1.416       .  A
C1721      C1724   1.452       .  S
C1722      C2437   1.450       .  S
C1723      N1730   1.157       .  T
C1724      N1729   1.157       .  T
C1725      C2434   1.450       .  S
C1725      N1727   1.157       .  T
C1726      N1728   1.157       .  T
C1731      C1732   1.405       .  A
C1731      C1736   1.409       .  A
C1732      C1733   1.400       .  A
C1732      C1737   1.450       .  S
C1733      C1734   1.411       .  A
C1733      C1740   1.447       .  S
C1734      C1735   1.409       .  A
C1735      C1736   1.409       .  A
C1735      C1738   1.450       .  S
C1736      C1739   1.444       .  S
C1737      N1744   1.158       .  T
C1738      N1743   1.157       .  T
C1739      N1741   1.156       .  T
C1740      N1742   1.155       .  T
C1745      C1746   1.407       .  A
C1745      C1750   1.398       .  A
C1746      C1747   1.396       .  A
C1746      C1751   1.454       .  S
C1747      C1748   1.412       .  A
C1747      C1754   1.452       .  S
C1748      C1749   1.417       .  A
C1749      C1750   1.397       .  A
C1749      C1752   1.447       .  S
C1750      C1753   1.454       .  S
C1751      N1758   1.157       .  T
C1752      N1757   1.157       .  T
C1753      N1755   1.157       .  T
C1754      N1756   1.157       .  T
C1759      C1760   1.430       .  A
C1759      C1764   1.424       .  A
C1760      C1761   1.419       .  A
C1760      C1765   1.452       .  S
C1761      C1762   1.408       .  A
C1761      C1768   1.449   1_655  S
C1762      C1763   1.412       .  A
C1763      C1764   1.413       .  A
C1763      C1766   1.451       .  S
C1764      C1767   1.452       .  S
C1765      N1772   1.158       .  T
C1766      N1771   1.157       .  T
C1767      N1769   1.158       .  T
C1768      N1770   1.157       .  T
C1773      C1774   1.419       .  A
C1773      C1778   1.410       .  A
C1774      C1775   1.414       .  A
C1774      C1779   1.452       .  S
C1775      C1776   1.409       .  A
C1775      C1782   1.447       .  S
C1776      C1777   1.415       .  A
C1777      C1778   1.409       .  A
C1777      C1780   1.447       .  S
C1778      C1781   1.453       .  S
C1779      N1786   1.157       .  T
C1780      N1785   1.157       .  T
C1781      N1783   1.158       .  T
C1782      N1784   1.157       .  T
C1787      C1788   1.414       .  A
C1787      C1792   1.409       .  A
C1788      C1789   1.411       .  A
C1788      C1793   1.451       .  S
C1789      C1790   1.412       .  A
C1789      C1796   1.451       .  S
C1790      C1791   1.410       .  A
C1791      C1792   1.402       .  A
C1791      C1794   1.449       .  S
C1792      C1795   1.453       .  S
C1793      N1800   1.157       .  T
C1794      N1799   1.156       .  T
C1795      N1797   1.157       .  T
C1796      N1798   1.157       .  T
C1801      C1802   1.419       .  A
C1801      C1806   1.409       .  A
C1802      C1803   1.422       .  A
C1802      C1807   1.448       .  S
C1803      C1804   1.409       .  A
C1803      C1810   1.446       .  S
C1804      C1805   1.423       .  A
C1805      C1806   1.419       .  A
C1805      C1808   1.448       .  S
C1806      C1809   1.450       .  S
C1807      N1814   1.157       .  T
C1808      N1813   1.157       .  T
C1809      N1811   1.157       .  T
C1810      N1812   1.158       .  T
C1815      C1816   1.419       .  A
C1815      C1820   1.412       .  A
C1816      C1817   1.414       .  A
C1816      C1821   1.448       .  S
C1817      C1818   1.412       .  A
C1817      C1824   1.452       .  S
C1818      C1819   1.408       .  A
C1819      C1820   1.405       .  A
C1819      C1822   1.454       .  S
C1821      N1828   1.156       .  T
C1822      N1827   1.157       .  T
C1823      N1825   1.156       .  T
C1824      N1826   1.157       .  T
C1829      C1830   1.418       .  A
C1829      C1834   1.407       .  A
C1830      C1831   1.418       .  A
C1830      C1835   1.448       .  S
C1831      C1832   1.415       .  A
C1831      C1838   1.450       .  S
C1832      C1833   1.417       .  A
C1833      C1834   1.420       .  A
C1833      C1836   1.446       .  S
C1834      C1837   1.445       .  S
C1835      N1842   1.157       .  T
C1836      N1841   1.156       .  T
C1837      N1839   1.157       .  T
C1838      N1840   1.157       .  T
C1843      C1844   1.409       .  A
C1843      C1848   1.411   1_545  A
C1844      C1845   1.421       .  A
C1844      C1849   1.445       .  S
C1845      C1846   1.413       .  A
C1845      C1852   1.443       .  S
C1846      C1847   1.427       .  A
C1847      C1848   1.408   1_545  A
C1847      C2562   1.446   1_545  S
C1848      C2563   1.456       .  S
C1849      N1856   1.157       .  T
C1850      C2559   1.445       .  S
C1850      N1855   1.157   1_655  T
C1851      C2560   1.456       .  S
C1851      N1853   1.157       .  T
C1852      N1854   1.157       .  T
C1857      C1858   1.855       .  A
C1858      C1859   1.824       .  A
C1858      C1863   1.434       .  S
C1859      C1860   1.846       .  A
C1859      C1866   1.437       .  S
C1861      C1862   1.823       .  A
C1861      C1864   1.434       .  S
C1862      C1865   1.433       .  S
C1863      N1870   1.157       .  T
C1864      N1869   1.156       .  T
C1865      N1867   1.156       .  T
C1866      N1868   1.157       .  T
C1871      C1872   1.402       .  A
C1871      C1876   1.414       .  A
C1872      C1873   1.416       .  A
C1872      C1877   1.453       .  S
C1873      C1874   1.431       .  A
C1873      C1880   1.446       .  S
C1874      C1875   1.417       .  A
C1875      C1876   1.415       .  A
C1875      C1878   1.450       .  S
C1876      C1879   1.451       .  S
C1877      N1884   1.157       .  T
C1878      N1883   1.157       .  T
C1879      N1881   1.157       .  T
C1880      N2594   1.157       .  T
N1882      C2592   1.157       .  T
C1885      C1886   1.421       .  A
C1885      C1890   1.413       .  A
C1886      C1887   1.410       .  A
C1886      C1891   1.452   1_556  S
C1887      C1888   1.409       .  A
C1887      C1894   1.450       .  S
C1888      C1889   1.415       .  A
C1889      C1890   1.416       .  A
C1889      C1892   1.449       .  S
C1890      C1893   1.451       .  S
C1891      N1898   1.157       .  T
C1892      N1897   1.157       .  T
C1893      N1895   1.157       .  T
C1894      N1896   1.156   1_556  T
C1899      C1900   1.415       .  A
C1899      C1904   1.425   1_554  A
C1900      C1901   1.412       .  A
C1900      C1905   1.451       .  S
C1901      C1902   1.411       .  A
C1901      C1908   1.448       .  S
C1902      C1903   1.411       .  A
C1903      C1904   1.403   1_554  A
C1903      C1906   1.453   1_554  S
C1904      C1907   1.458       .  S
C1905      N1912   1.157       .  T
C1906      N1911   1.157       .  T
C1907      N1909   1.158       .  T
C1908      N1910   1.156       .  T
C1913      C1914   1.424       .  A
C1913      C1918   1.426       .  A
C1914      C1915   1.416       .  A
C1914      C1919   1.454       .  S
C1915      C1916   1.414       .  A
C1915      C1922   1.447       .  S
C1916      N2213   1.453       .  S
C1916      C1917   1.407       .  A
C1917      C1918   1.409       .  A
C1917      C1920   1.451       .  S
C1918      C1921   1.451       .  S
C1919      N1926   1.158       .  T
C1920      N1925   1.157       .  T
C1921      N1923   1.157       .  T
C1922      N2636   1.157       .  T
N1924      C2634   1.157   1_545  T
C1927      C1928   1.408       .  A
C1927      C1932   1.412       .  A
C1928      C1929   1.413       .  A
C1929      C1930   1.413       .  A
C1929      C1936   1.449       .  S
C1930      C1931   1.412       .  A
C1931      C1932   1.411       .  A
C1931      C1934   1.451       .  S
C1932      C1935   1.452       .  S
C1933      N1940   1.157       .  T
C1934      N1939   1.157       .  T
C1935      N1937   1.157       .  T
C1936      N1938   1.157       .  T
C1941      C1942   1.418       .  A
C1941      C1946   1.419       .  A
C1942      C1943   1.412       .  A
C1942      C1947   1.446       .  S
C1943      C1944   1.406       .  A
C1943      C1950   1.452       .  S
C1944      C1945   1.410       .  A
C1945      C1946   1.407       .  A
C1945      C1948   1.454       .  S
C1946      C1949   1.453       .  S
C1947      N1954   1.157       .  T
C1948      N1953   1.157       .  T
C1949      N2663   1.157       .  T
C1950      N1952   1.157   1_554  T
N1951      C2661   1.157       .  T
C1955      C1956   1.423       .  A
C1955      C1960   1.412       .  A
C1956      C1957   1.408       .  A
C1956      C1961   1.453       .  S
C1957      C1958   1.409       .  A
C1957      C1964   1.452       .  S
C1958      C1959   1.415       .  A
C1959      C1960   1.410       .  A
C1959      C1962   1.450       .  S
C1960      C1963   1.446       .  S
C1961      N1968   1.157       .  T
C1962      N1967   1.158       .  T
C1963      N1965   1.156       .  T
C1964      N1966   1.157       .  T
C1969      C1970   1.404       .  A
C1969      C1974   1.404       .  A
C1970      C1971   1.408       .  A
C1970      C1975   1.451       .  S
C1971      C1972   1.420       .  A
C1971      C1978   1.451       .  S
C1972      C1973   1.417       .  A
C1973      C1974   1.408       .  A
C1973      C1976   1.446       .  S
C1974      C1977   1.452       .  S
C1975      N1982   1.157       .  T
C1976      N1981   1.156       .  T
C1977      N1979   1.157   1_556  T
C1978      N1980   1.157       .  T
C1983      C1984   1.417       .  A
C1983      C1988   1.419       .  A
C1984      C1985   1.431       .  A
C1984      C1989   1.448       .  S
C1985      C1986   1.416       .  A
C1985      C1992   1.445       .  S
C1986      C1987   1.408       .  A
C1987      C1988   1.410       .  A
C1987      C1990   1.448       .  S
C1988      C1991   1.451   1_554  S
C1989      N1996   1.157       .  T
C1990      N1995   1.157       .  T
C1991      N1993   1.157       .  T
C1992      N1994   1.157       .  T
C1997      C1998   1.414       .  A
C1997      C2002   1.408       .  A
C1998      C1999   1.424       .  A
C1998      C2003   1.448       .  S
C1999      C2000   1.415       .  A
C1999      C2006   1.445       .  S
C2000      C2001   1.430       .  A
C2001      C2002   1.416       .  A
C2001      C2004   1.448       .  S
C2002      C2005   1.453       .  S
C2003      N2010   1.157   1_556  T
C2004      N2009   1.157       .  T
C2005      N2007   1.157       .  T
C2006      N2008   1.157       .  T
C2011      C2012   1.429       .  A
C2011      C2016   1.432       .  A
C2012      C2013   1.421       .  A
C2012      C2017   1.449       .  S
C2013      C2014   1.404       .  A
C2013      C2020   1.447       .  S
C2014      C2015   1.409       .  A
C2015      C2016   1.411       .  A
C2016      C2019   1.453   1_556  S
C2017      N2024   1.157       .  T
C2018      N2023   1.158       .  T
C2019      N2021   1.158       .  T
C2020      N2022   1.157       .  T
C2025      C2026   1.412       .  A
C2025      C2030   1.403       .  A
C2026      C2027   1.409       .  A
C2026      C2031   1.453       .  S
C2027      C2028   1.412       .  A
C2028      C2029   1.421       .  A
C2029      C2030   1.407       .  A
C2029      C2032   1.447       .  S
C2030      C2033   1.453       .  S
C2031      N2038   1.157       .  T
C2032      N2037   1.156       .  T
C2033      N2035   1.157       .  T
C2034      N2036   1.157       .  T
C2039      C2040   1.422       .  A
C2039      C2044   1.413       .  A
C2040      C2041   1.411       .  A
C2040      C2045   1.453       .  S
C2041      C2042   1.408       .  A
C2041      C2048   1.448       .  S
C2042      C2043   1.416       .  A
C2043      C2044   1.418       .  A
C2043      C2046   1.448       .  S
C2044      C2047   1.449       .  S
C2045      N2052   1.157       .  T
C2046      N2051   1.157       .  T
C2047      N2049   1.157       .  T
C2048      N2050   1.157       .  T
C2053      C2054   1.411       .  A
C2053      C2058   1.422       .  A
C2054      C2055   1.409       .  A
C2054      C2059   1.449       .  S
C2055      C2056   1.425       .  A
C2055      C2062   1.452       .  S
C2056      C2057   1.408       .  A
C2057      C2058   1.425       .  A
C2057      C2060   1.447       .  S
C2058      C2061   1.446       .  S
C2059      N2066   1.156       .  T
C2060      N2065   1.157       .  T
C2061      N2063   1.157   1_655  T
C2062      N2064   1.158       .  T
C2067      C2072   1.425       .  A
C2068      C2073   1.450       .  S
C2069      C2070   1.411       .  A
C2070      C2071   1.411       .  A
C2071      C2072   1.410       .  A
C2071      C2074   1.455       .  S
C2072      C2075   1.448       .  S
C2073      N2080   1.157       .  T
C2074      N2079   1.157       .  T
C2075      N2077   1.157       .  T
C2076      N2078   1.157       .  T
C2081      C2144   1.517       .  S
C2081      C2794   1.424       .  A
C2081      C2086   1.421   1_565  A
C2082      C2793   1.425       .  A
C2082      C2083   1.413       .  A
C2082      C2087   1.445       .  S
C2083      C2796   1.401       .  A
C2083      C2090   1.451       .  S
C2084      C2795   1.402   1_545  A
C2084      C2085   1.406       .  A
C2085      C2086   1.405       .  A
C2085      C2088   1.457       .  S
C2086      C2089   1.442       .  S
C2087      N2094   1.156       .  T
C2088      N2093   1.157       .  T
C2089      N2091   1.155       .  T
C2090      N2092   1.157       .  T
C2095      C2096   1.411       .  A
C2095      C2100   1.423       .  A
C2096      C2097   1.410       .  A
C2096      C2101   1.451       .  S
C2097      C2098   1.421       .  A
C2097      C2104   1.452       .  S
C2098      C2099   1.400       .  A
C2099      C2100   1.412       .  A
C2099      C2102   1.451       .  S
C2100      C2103   1.445       .  S
C2101      N2820   1.157       .  T
C2102      N2107   1.157       .  T
C2103      N2105   1.156       .  T
C2104      N2106   1.157       .  T
N2108      C2813   1.157   1_545  T
C2109      C2110   1.416       .  A
C2110      C2111   1.429       .  A
C2110      C2115   1.447   1_655  S
C2111      C2112   1.427       .  A
C2111      C2118   1.447   1_655  S
C2113      C2114   1.422       .  A
C2113      C2116   1.448       .  S
C2114      C2117   1.448       .  S
C2115      N2122   1.156       .  T
C2116      N2121   1.157       .  T
C2117      N2119   1.157       .  T
C2118      N2120   1.157       .  T
C2123      C2141   1.509       .  S
C2123      C2836   1.419       .  A
C2123      C2128   1.420   1_565  A
C2124      C2835   1.420       .  A
C2124      C2125   1.410       .  A
C2124      C2129   1.447       .  S
C2125      C2838   1.406       .  A
C2125      C2132   1.448       .  S
C2126      C2837   1.408   1_545  A
C2126      C2127   1.411       .  A
C2127      C2128   1.411       .  A
C2127      C2130   1.450       .  S
C2128      C2131   1.449       .  S
C2129      N2136   1.156       .  T
C2130      N2135   1.156       .  T
C2131      N2133   1.157       .  T
C2132      N2134   1.155       .  T
C2137      H2138   1.105       .  S
C2137      C2143   1.543       .  S
C2139      H2140   1.105       .  S
C2141      C2144   1.387       .  D
C2142      C2145   1.392       .  D
C2142      C2824   1.547       .  S
C2143      C2146   1.376       .  D
C2143      C2807   1.504       .  S
C2146      C2765   1.516       .  S
O2147     Ni2153   1.907       .  S
O2147      C2168   1.264       .  A
O2148     Ni2171   1.926   1_556  S
O2148      C2157   1.275       .  A
O2149     Ni2153   1.899       .  S
O2149     Ni2171   1.912       .  S
O2149     Ni2165   1.909       .  S
O2149      H2172   0.964       .  S
C2150      O2167   1.272       .  A
C2150      O2159   1.281       .  A
C2150      C2681   1.471       .  S
O2151     Ni2170   1.951       .  S
O2151      C2157   1.278       .  A
O2152     Ni2170   1.912   1_554  S
O2152      C2154   1.272       .  A
Ni2153     O2156   1.890       .  S
Ni2153     O2158   1.904       .  S
C2154      O2164   1.287       .  A
C2154      C2695   1.510       .  S
O2155     Ni2171   1.937       .  S
O2155      C2161   1.281       .  A
O2156      C2161   1.271       .  A
C2157      C2709   1.503       .  S
O2158      C2160   1.265   1_554  A
O2159     Ni2170   1.934       .  S
C2160      O2166   1.274       .  A
C2160      C2723   1.525       .  S
C2161      C2737   1.470       .  S
H2162      O2163   0.966       .  S
O2163     Ni2171   1.908   1_556  S
O2163     Ni2165   1.917   1_556  S
O2163     Ni2170   1.888       .  S
O2164     Ni2165   1.975       .  S
Ni2165     O2169   1.949       .  S
Ni2165     O2167   1.905   1_554  S
O2166     Ni2171   1.949   1_556  S
C2168      O2169   1.278       .  A
C2168      C2751   1.503       .  S
N2173      C2177   1.360       .  A
N2173      C2174   1.370       .  A
N2173      C2712   1.471       .  S
C2174      C2768   1.514       .  S
C2174      C2175   1.387       .  A
C2175      C2176   1.366       .  A
C2175      H2178   1.077       .  S
C2176      C2177   1.378       .  A
C2176      H2179   1.082       .  S
C2177      C2670   1.491       .  S
O2180     Ni2186   1.908       .  S
O2180      C2201   1.261       .  A
O2181     Ni2204   1.907       .  S
O2181      C2190   1.271       .  A
O2182     Ni2186   1.886       .  S
O2182     Ni2204   1.902   1_556  S
O2182     Ni2198   1.919       .  S
O2182      H2205   0.970       .  S
C2183      O2200   1.277       .  A
C2183      O2192   1.280       .  A
C2183      C2656   1.476       .  S
O2184     Ni2203   1.941       .  S
O2184      C2190   1.276       .  A
O2185     Ni2203   1.911       .  S
O2185      C2187   1.269   1_554  A
Ni2186     O2189   1.921       .  S
Ni2186     O2191   1.875       .  S
C2187      O2197   1.271       .  A
C2187      C2625   1.514       .  S
O2188     Ni2204   1.926   1_556  S
O2188      C2194   1.276       .  A
O2189      C2194   1.277       .  A
C2190      C2642   1.483       .  S
O2191      C2193   1.261       .  A
O2192     Ni2203   1.938       .  S
C2193      O2199   1.276   1_556  A
C2193      C2611   1.490   1_556  S
C2194      C2597   1.499       .  S
H2195      O2196   0.968       .  S
O2196     Ni2204   1.898       .  S
O2196     Ni2198   1.900   1_554  S
O2196     Ni2203   1.894       .  S
O2197     Ni2198   1.929       .  S
Ni2198     O2202   1.934       .  S
Ni2198     O2200   1.905   1_556  S
O2199     Ni2204   1.934       .  S
C2201      O2202   1.274       .  A
C2201      C2667   1.499       .  S
N2206      C2210   1.367       .  A
N2206      C2207   1.369       .  A
N2206      C2698   1.461       .  S
C2207      C2583   1.483       .  S
C2207      C2208   1.384       .  A
C2208      C2209   1.353       .  A
C2208      H2211   1.083       .  S
C2209      C2210   1.376       .  A
C2209      H2212   1.082       .  S
C2210      C2614   1.479       .  S
N2213      C2217   1.363       .  A
N2213      C2214   1.357       .  A
C2214      C2796   1.472       .  S
C2214      C2215   1.381       .  A
C2215      C2216   1.366       .  A
C2215      H2218   1.083       .  S
C2216      C2217   1.382       .  A
C2216      H2219   1.082       .  S
C2217      C2684   1.491       .  S
N2220      C2221   1.359       .  A
N2220      C2639   1.444       .  S
C2221      C2572   1.477       .  S
C2222      C2223   1.375       .  A
C2222      H2225   1.082       .  S
C2223      C2224   1.380       .  A
C2223      H2226   1.081       .  S
C2224      C2740   1.490       .  S
N2227      C2231   1.363       .  A
N2227      C2228   1.369       .  A
C2228      C2782   1.502       .  S
C2228      C2229   1.389       .  A
C2229      C2230   1.367       .  A
C2229      H2232   1.083       .  S
C2230      C2231   1.376       .  A
C2230      H2233   1.081       .  S
C2231      C2600   1.493       .  S
N2234      C2235   1.366       .  A
N2234      C2754   1.451       .  S
C2235      C2555   1.494       .  S
C2236      C2237   1.364       .  A
C2236      H2239   1.082       .  S
C2237      C2238   1.381       .  A
C2237      H2240   1.082       .  S
C2238      C2653   1.496       .  S
O2241     Ni2247   1.956       .  S
O2241      C2262   1.280       .  A
O2242     Ni2265   1.916       .  S
O2242      C2251   1.272       .  A
O2243     Ni2247   1.904       .  S
O2243     Ni2265   1.911       .  S
O2243     Ni2259   1.902       .  S
O2243      H2266   0.966       .  S
C2244      O2261   1.273       .  A
C2244      O2253   1.275       .  A
C2244      C2530   1.481       .  S
O2245     Ni2264   1.920       .  S
O2245      C2251   1.266       .  A
O2246     Ni2264   1.908       .  S
O2246      C2248   1.266       .  A
Ni2247     O2250   1.926       .  S
Ni2247     O2252   1.922       .  S
C2248      O2258   1.273       .  A
C2248      C2471   1.518       .  S
O2249     Ni2265   1.901       .  S
O2249      C2255   1.271       .  A
O2250      C2255   1.278       .  A
C2251      C2485   1.488       .  S
O2252      C2254   1.275       .  A
O2253     Ni2264   1.923       .  S
C2254      O2260   1.281       .  A
C2254      C2513   1.505       .  S
C2255      C2499   1.474       .  S
H2256      O2257   0.965       .  S
O2257     Ni2265   1.909       .  S
O2257     Ni2259   1.904       .  S
O2257     Ni2264   1.918       .  S
O2258     Ni2259   1.932       .  S
Ni2259     O2263   1.913       .  S
Ni2259     O2261   1.903       .  S
O2260     Ni2265   1.961       .  S
C2262      O2263   1.270       .  A
C2262      C2544   1.505       .  S
N2267      C2271   1.352       .  A
N2267      C2268   1.359       .  A
N2267      C2541   1.459       .  S
C2268      C2810   1.480       .  S
C2268      C2269   1.388       .  A
C2269      C2270   1.357       .  A
C2269      H2272   1.080       .  S
C2270      C2271   1.373       .  A
C2270      H2273   1.082       .  S
C2271      C2460   1.463       .  S
O2274     Ni2280   1.926       .  S
O2274      C2295   1.278       .  A
O2275     Ni2298   1.884       .  S
O2275      C2284   1.264       .  A
O2276     Ni2280   1.882       .  S
O2276     Ni2298   1.887       .  S
O2276     Ni2292   1.931       .  S
O2276      H2299   0.966       .  S
C2277      O2294   1.292       .  A
C2277      O2286   1.272       .  A
C2277      C2387   1.504       .  S
O2278     Ni2297   1.892       .  S
O2278      C2284   1.256       .  A
O2279     Ni2297   1.894       .  S
O2279      C2281   1.263       .  A
Ni2280     O2283   1.951       .  S
Ni2280     O2285   1.895       .  S
C2281      O2291   1.268       .  A
C2281      C2401   1.469       .  S
O2282     Ni2298   1.912       .  S
O2282      C2288   1.275       .  A
O2283      C2288   1.282       .  A
C2284      C2457   1.441       .  S
O2285      C2287   1.266       .  A
O2286     Ni2297   1.896       .  S
C2287      O2293   1.273       .  A
C2287      C2415   1.479       .  S
C2288      C2432   1.505       .  S
H2289      O2290   0.967       .  S
O2290     Ni2298   1.919       .  S
O2290     Ni2292   1.878       .  S
O2290     Ni2297   1.881       .  S
O2291     Ni2292   1.926       .  S
Ni2292     O2296   1.893       .  S
Ni2292     O2294   1.984       .  S
O2293     Ni2298   1.942       .  S
C2295      O2296   1.273       .  A
C2295      C2446   1.476       .  S
N2300      C2304   1.367       .  A
N2300      C2301   1.374       .  A
C2301      C2838   1.485       .  S
C2301      C2302   1.381       .  A
C2302      C2303   1.357       .  A
C2302      H2305   1.083       .  S
C2303      C2304   1.377       .  A
C2303      H2306   1.082       .  S
C2304      C2502   1.476       .  S
N2307      C2474   1.450       .  S
C2308      C2309   1.380       .  A
C2309      C2310   1.370       .  A
C2309      H2312   1.077       .  S
C2310      C2311   1.380       .  A
C2310      H2313   1.082       .  S
C2311      C2390   1.501       .  S
N2314      C2315   1.358       .  A
N2314      C2443   1.433       .  S
C2315      C2376   1.495       .  S
C2316      C2317   1.382       .  A
C2316      H2319   1.082       .  S
C2317      C2318   1.383       .  A
C2317      H2320   1.082       .  S
C2318      C2527   1.498       .  S
N2321      C2325   1.363       .  A
N2321      C2322   1.369       .  A
N2321      C2516   1.466       .  S
C2322      C2362   1.498       .  S
C2322      C2323   1.383       .  A
C2323      C2324   1.361       .  A
C2323      H2326   1.080       .  S
C2324      C2325   1.377       .  A
C2324      H2327   1.082       .  S
C2325      C2404   1.486       .  S
N2328      C2329   1.368       .  A
N2328      C2488   1.447       .  S
C2329      C2345   1.506       .  S
C2330      C2331   1.374       .  A
C2330      H2333   1.082       .  S
C2331      C2332   1.379       .  A
C2331      H2334   1.082       .  S
C2332      C2429   1.508       .  S
C2335      H2336   1.099       .  S
C2335      C2339   1.541       .  S
C2337      H2338   1.106       .  S
C2337      C2342   1.560       .  S
C2339      C2342   1.388       .  D
C2339      C2586   1.523       .  S
C2340      C2343   1.407       .  D
C2340      C2558   1.544       .  S
C2341      C2344   1.322       .  D
C2341      C2569   1.403       .  S
C2342      C2359   1.519       .  S
C2343      C2348   1.541       .  S
C2344      C2373   1.543       .  S
C2345      C2346   1.412       .  A
C2346      C2347   1.427       .  A
C2346      C2351   1.446       .  S
C2347      C2348   1.418       .  A
C2347      C2354   1.444       .  S
C2349      C2350   1.416       .  A
C2349      C2352   1.433       .  S
C2350      C2353   1.455       .  S
C2351      N2358   1.157       .  T
C2352      N2357   1.153       .  T
C2353      N2355   1.157       .  T
C2354      N2356   1.158       .  T
C2359      C2360   1.409       .  A
C2359      C2364   1.420       .  A
C2360      C2361   1.415       .  A
C2360      C2365   1.447       .  S
C2361      C2362   1.424       .  A
C2361      C2368   1.450       .  S
C2362      C2363   1.404       .  A
C2363      C2364   1.417       .  A
C2363      C2366   1.450       .  S
C2364      C2367   1.440       .  S
C2365      N2372   1.156       .  T
C2366      N2371   1.157       .  T
C2367      N2369   1.154       .  T
C2368      N2370   1.158       .  T
C2373      C2374   1.567       .  A
C2373      C2378   1.419       .  A
C2374      C2375   1.517       .  A
C2374      C2379   2.747       .  S
C2375      C2376   1.397       .  A
C2375      C2382   1.456       .  S
C2376      C2377   1.389       .  A
C2377      C2378   1.391       .  A
C2377      C2380   1.443       .  S
C2378      C2381   1.451       .  S
C2379      N2386   1.161       .  T
C2381      N2383   1.157   1_565  T
C2382      N2384   1.158       .  T
C2387      C2388   1.414       .  A
C2387      C2392   1.423       .  A
C2388      C2389   1.425       .  A
C2388      C2393   1.449       .  S
C2389      C2390   1.418       .  A
C2389      C2396   1.447       .  S
C2390      C2391   1.410       .  A
C2391      C2392   1.408       .  A
C2391      C2394   1.454       .  S
C2392      C2395   1.454       .  S
C2393      N2400   1.157       .  T
C2394      N2399   1.157       .  T
C2395      N2397   1.158       .  T
C2401      C2402   1.411       .  A
C2401      C2406   1.404       .  A
C2402      C2403   1.412       .  A
C2402      C2407   1.452       .  S
C2403      C2404   1.417       .  A
C2403      C2410   1.451       .  S
C2404      C2405   1.414       .  A
C2405      C2406   1.403       .  A
C2405      C2408   1.445       .  S
C2406      C2409   1.453       .  S
C2407      N2414   1.158       .  T
C2408      N2413   1.156       .  T
C2409      N2411   1.157       .  T
C2410      N2412   1.157       .  T
C2415      C2416   1.410       .  A
C2415      C2420   1.408       .  A
C2416      C2417   1.411       .  A
C2416      C2421   1.451       .  S
C2417      C2418   1.412       .  A
C2417      C2424   1.441       .  S
C2418      C2419   1.416       .  A
C2419      C2420   1.411       .  A
C2420      C2423   1.447       .  S
C2421      N2428   1.157       .  T
C2422      N2427   1.158       .  T
C2423      N2425   1.157       .  T
C2424      N2426   1.157       .  T
C2429      C2430   1.416       .  A
C2429      C2434   1.418       .  A
C2430      C2431   1.419       .  A
C2430      C2435   1.448       .  S
C2431      C2432   1.417       .  A
C2431      C2438   1.451       .  S
C2432      C2433   1.416       .  A
C2433      C2434   1.417       .  A
C2433      C2436   1.452       .  S
C2435      N2442   1.157       .  T
C2436      N2441   1.157       .  T
C2437      N2439   1.157       .  T
C2438      N2440   1.157       .  T
C2443      C2444   1.404       .  A
C2443      C2448   1.408       .  A
C2444      C2445   1.400       .  A
C2444      C2449   1.452       .  S
C2445      C2446   1.413       .  A
C2445      C2452   1.448       .  S
C2446      C2447   1.412       .  A
C2447      C2448   1.408       .  A
C2447      C2450   1.450       .  S
C2448      C2451   1.445       .  S
C2449      N2456   1.158       .  T
C2450      N2455   1.157       .  T
C2451      N2453   1.156       .  T
C2452      N2454   1.155       .  T
C2457      C2458   1.408       .  A
C2457      C2462   1.396       .  A
C2458      C2459   1.397       .  A
C2458      C2463   1.454       .  S
C2459      C2460   1.412       .  A
C2459      C2466   1.453       .  S
C2460      C2461   1.417       .  A
C2461      C2462   1.395       .  A
C2461      C2464   1.447       .  S
C2462      C2465   1.455       .  S
C2463      N2470   1.157       .  T
C2464      N2469   1.157       .  T
C2465      N2467   1.157       .  T
C2466      N2468   1.157       .  T
C2471      C2472   1.429       .  A
C2471      C2476   1.424       .  A
C2472      C2473   1.418       .  A
C2472      C2477   1.453       .  S
C2473      C2474   1.410       .  A
C2473      C2480   1.449   1_655  S
C2474      C2475   1.412       .  A
C2475      C2476   1.413       .  A
C2475      C2478   1.450       .  S
C2476      C2479   1.452       .  S
C2477      N2484   1.158       .  T
C2478      N2483   1.157       .  T
C2479      N2481   1.158       .  T
C2480      N2482   1.157       .  T
C2485      C2486   1.419       .  A
C2485      C2490   1.410       .  A
C2486      C2487   1.413       .  A
C2486      C2491   1.452       .  S
C2487      C2488   1.409       .  A
C2487      C2494   1.447       .  S
C2488      C2489   1.414       .  A
C2489      C2490   1.409       .  A
C2489      C2492   1.447       .  S
C2490      C2493   1.453       .  S
C2491      N2498   1.158       .  T
C2492      N2497   1.157       .  T
C2493      N2495   1.158       .  T
C2494      N2496   1.157       .  T
C2499      C2500   1.414       .  A
C2499      C2504   1.409       .  A
C2500      C2501   1.409       .  A
C2500      C2505   1.451       .  S
C2501      C2502   1.411       .  A
C2501      C2508   1.451       .  S
C2502      C2503   1.411       .  A
C2503      C2504   1.402       .  A
C2503      C2506   1.449       .  S
C2504      C2507   1.453       .  S
C2505      N2512   1.157       .  T
C2506      N2511   1.157       .  T
C2507      N2509   1.157       .  T
C2508      N2510   1.157       .  T
C2513      C2514   1.419       .  A
C2513      C2518   1.409       .  A
C2514      C2515   1.423       .  A
C2514      C2519   1.448       .  S
C2515      C2516   1.410       .  A
C2515      C2522   1.446       .  S
C2516      C2517   1.423       .  A
C2517      C2518   1.420       .  A
C2517      C2520   1.448       .  S
C2518      C2521   1.450       .  S
C2519      N2526   1.157       .  T
C2520      N2525   1.157       .  T
C2521      N2523   1.157       .  T
C2522      N2524   1.158       .  T
C2527      C2528   1.418       .  A
C2527      C2532   1.413       .  A
C2528      C2529   1.413       .  A
C2528      C2533   1.448       .  S
C2529      C2530   1.411       .  A
C2529      C2536   1.452       .  S
C2530      C2531   1.409       .  A
C2531      C2532   1.406       .  A
C2531      C2534   1.455       .  S
C2533      N2540   1.156       .  T
C2534      N2539   1.157       .  T
C2535      N2537   1.157       .  T
C2536      N2538   1.157       .  T
C2541      C2542   1.417       .  A
C2541      C2546   1.407       .  A
C2542      C2543   1.417       .  A
C2542      C2547   1.448       .  S
C2543      C2544   1.414       .  A
C2543      C2550   1.451       .  S
C2544      C2545   1.417       .  A
C2545      C2546   1.419       .  A
C2545      C2548   1.446       .  S
C2546      C2549   1.445       .  S
C2547      N2554   1.157       .  T
C2548      N2553   1.156       .  T
C2549      N2551   1.157       .  T
C2550      N2552   1.157       .  T
C2555      C2556   1.408       .  A
C2555      C2560   1.409       .  A
C2556      C2557   1.423       .  A
C2556      C2561   1.446       .  S
C2557      C2558   1.416       .  A
C2557      C2564   1.443       .  S
C2558      C2559   1.428       .  A
C2559      C2560   1.409       .  A
C2561      N2568   1.157       .  T
C2562      N2567   1.157   1_655  T
C2563      N2565   1.157       .  T
C2564      N2566   1.157       .  T
C2569      C2570   1.853       .  A
C2570      C2571   1.825       .  A
C2570      C2575   1.434       .  S
C2571      C2572   1.847       .  A
C2571      C2578   1.437       .  S
C2573      C2574   1.823       .  A
C2573      C2576   1.434       .  S
C2574      C2577   1.433       .  S
C2575      N2582   1.157       .  T
C2576      N2581   1.156       .  T
C2577      N2579   1.156       .  T
C2578      N2580   1.157       .  T
C2583      C2584   1.401       .  A
C2583      C2588   1.414       .  A
C2584      C2585   1.415       .  A
C2584      C2589   1.453       .  S
C2585      C2586   1.430       .  A
C2585      C2592   1.445       .  S
C2586      C2587   1.417       .  A
C2587      C2588   1.416       .  A
C2587      C2590   1.450       .  S
C2588      C2591   1.451       .  S
C2589      N2596   1.157       .  T
C2590      N2595   1.157       .  T
C2591      N2593   1.157       .  T
C2597      C2598   1.422       .  A
C2597      C2602   1.413       .  A
C2598      C2599   1.411       .  A
C2598      C2603   1.453   1_556  S
C2599      C2600   1.409       .  A
C2599      C2606   1.450       .  S
C2600      C2601   1.415       .  A
C2601      C2602   1.416       .  A
C2601      C2604   1.449       .  S
C2602      C2605   1.451       .  S
C2603      N2610   1.157       .  T
C2604      N2609   1.157       .  T
C2605      N2607   1.157       .  T
C2606      N2608   1.157   1_556  T
C2611      C2612   1.414       .  A
C2611      C2616   1.423   1_554  A
C2612      C2613   1.411       .  A
C2612      C2617   1.452       .  S
C2613      C2614   1.412       .  A
C2613      C2620   1.448       .  S
C2614      C2615   1.412       .  A
C2615      C2616   1.403   1_554  A
C2615      C2618   1.453   1_554  S
C2616      C2619   1.457       .  S
C2617      N2624   1.157       .  T
C2618      N2623   1.157       .  T
C2619      N2621   1.158       .  T
C2620      N2622   1.156       .  T
C2625      C2626   1.426       .  A
C2625      C2630   1.426       .  A
C2626      C2627   1.417       .  A
C2626      C2631   1.454       .  S
C2627      C2628   1.413       .  A
C2627      C2634   1.447       .  S
C2628      C2629   1.406       .  A
C2629      C2630   1.409       .  A
C2629      C2632   1.451       .  S
C2630      C2633   1.451       .  S
C2631      N2638   1.158   1_556  T
C2632      N2637   1.157       .  T
C2633      N2635   1.157       .  T
C2639      C2640   1.409       .  A
C2639      C2644   1.412       .  A
C2640      C2641   1.413       .  A
C2641      C2642   1.413       .  A
C2641      C2648   1.450       .  S
C2642      C2643   1.411       .  A
C2643      C2644   1.411       .  A
C2643      C2646   1.451       .  S
C2644      C2647   1.451       .  S
C2645      N2652   1.157       .  T
C2646      N2651   1.157       .  T
C2647      N2649   1.157       .  T
C2648      N2650   1.157       .  T
C2653      C2654   1.418       .  A
C2653      C2658   1.420       .  A
C2654      C2655   1.410       .  A
C2654      C2659   1.446       .  S
C2655      C2656   1.405       .  A
C2655      C2662   1.451       .  S
C2656      C2657   1.410       .  A
C2657      C2658   1.407       .  A
C2657      C2660   1.453       .  S
C2658      C2661   1.453       .  S
C2659      N2666   1.157       .  T
C2660      N2665   1.157       .  T
C2662      N2664   1.157   1_554  T
C2667      C2668   1.425       .  A
C2667      C2672   1.413       .  A
C2668      C2669   1.409       .  A
C2668      C2673   1.453       .  S
C2669      C2670   1.409       .  A
C2669      C2676   1.452       .  S
C2670      C2671   1.416       .  A
C2671      C2672   1.410       .  A
C2671      C2674   1.450       .  S
C2672      C2675   1.445       .  S
C2673      N2680   1.158       .  T
C2674      N2679   1.158       .  T
C2675      N2677   1.155       .  T
C2676      N2678   1.157       .  T
C2681      C2682   1.404       .  A
C2681      C2686   1.403       .  A
C2682      C2683   1.409       .  A
C2682      C2687   1.451       .  S
C2683      C2684   1.421       .  A
C2683      C2690   1.451       .  S
C2684      C2685   1.417       .  A
C2685      C2686   1.407       .  A
C2685      C2688   1.446       .  S
C2686      C2689   1.451       .  S
C2687      N2694   1.157       .  T
C2688      N2693   1.156       .  T
C2689      N2691   1.157   1_556  T
C2690      N2692   1.157       .  T
C2695      C2696   1.418       .  A
C2695      C2700   1.418       .  A
C2696      C2697   1.431       .  A
C2696      C2701   1.447       .  S
C2697      C2698   1.416       .  A
C2697      C2704   1.445       .  S
C2698      C2699   1.408       .  A
C2699      C2700   1.409       .  A
C2699      C2702   1.448       .  S
C2700      C2703   1.451   1_554  S
C2701      N2708   1.157       .  T
C2702      N2707   1.157       .  T
C2703      N2705   1.157       .  T
C2704      N2706   1.157       .  T
C2709      C2710   1.413       .  A
C2709      C2714   1.408       .  A
C2710      C2711   1.425       .  A
C2710      C2715   1.448       .  S
C2711      C2712   1.416       .  A
C2711      C2718   1.445       .  S
C2712      C2713   1.430       .  A
C2713      C2714   1.417       .  A
C2713      C2716   1.448       .  S
C2714      C2717   1.453       .  S
C2715      N2722   1.157   1_556  T
C2716      N2721   1.158       .  T
C2717      N2719   1.157       .  T
C2718      N2720   1.157       .  T
C2723      C2724   1.428       .  A
C2723      C2728   1.432       .  A
C2724      C2725   1.422       .  A
C2724      C2729   1.449       .  S
C2725      C2726   1.405       .  A
C2725      C2732   1.447       .  S
C2726      C2727   1.410       .  A
C2727      C2728   1.412       .  A
C2728      C2731   1.454   1_556  S
C2729      N2736   1.157       .  T
C2730      N2735   1.158       .  T
C2731      N2733   1.158       .  T
C2732      N2734   1.157       .  T
C2737      C2738   1.412       .  A
C2737      C2742   1.402       .  A
C2738      C2739   1.410       .  A
C2738      C2743   1.453       .  S
C2739      C2740   1.412       .  A
C2740      C2741   1.421       .  A
C2741      C2742   1.407       .  A
C2741      C2744   1.448       .  S
C2742      C2745   1.453       .  S
C2743      N2750   1.158       .  T
C2744      N2749   1.156       .  T
C2745      N2747   1.157       .  T
C2746      N2748   1.157       .  T
C2751      C2752   1.422       .  A
C2751      C2756   1.414       .  A
C2752      C2753   1.411       .  A
C2752      C2757   1.452       .  S
C2753      C2754   1.407       .  A
C2753      C2760   1.448       .  S
C2754      C2755   1.415       .  A
C2755      C2756   1.419       .  A
C2755      C2758   1.448       .  S
C2756      C2759   1.449       .  S
C2757      N2764   1.157       .  T
C2758      N2763   1.157       .  T
C2759      N2761   1.157       .  T
C2760      N2762   1.157       .  T
C2765      C2766   1.412       .  A
C2765      C2770   1.422       .  A
C2766      C2767   1.409       .  A
C2766      C2771   1.449       .  S
C2767      C2768   1.424       .  A
C2767      C2774   1.453       .  S
C2768      C2769   1.407       .  A
C2769      C2770   1.425       .  A
C2769      C2772   1.448       .  S
C2770      C2773   1.446       .  S
C2771      N2778   1.156       .  T
C2772      N2777   1.157       .  T
C2773      N2775   1.157   1_655  T
C2774      N2776   1.158       .  T
C2779      C2784   1.424       .  A
C2780      C2785   1.449       .  S
C2781      C2782   1.411       .  A
C2782      C2783   1.413       .  A
C2783      C2784   1.411       .  A
C2783      C2786   1.455       .  S
C2784      C2787   1.448       .  S
C2785      N2792   1.157       .  T
C2786      N2791   1.157       .  T
C2787      N2789   1.157       .  T
C2788      N2790   1.157       .  T
C2793      C2798   1.420       .  A
C2794      C2795   1.414       .  A
C2794      C2799   1.446       .  S
C2795      C2802   1.451       .  S
C2796      C2797   1.406       .  A
C2797      C2798   1.404       .  A
C2797      C2800   1.457       .  S
C2798      C2801   1.443       .  S
C2799      N2806   1.156       .  T
C2800      N2805   1.157       .  T
C2801      N2803   1.156       .  T
C2802      N2804   1.157       .  T
C2807      C2808   1.411       .  A
C2807      C2812   1.422       .  A
C2808      C2809   1.408       .  A
C2808      C2813   1.451       .  S
C2809      C2810   1.420       .  A
C2809      C2816   1.452       .  S
C2810      C2811   1.399       .  A
C2811      C2812   1.411       .  A
C2811      C2814   1.451       .  S
C2812      C2815   1.444       .  S
C2814      N2819   1.157       .  T
C2815      N2817   1.156       .  T
C2816      N2818   1.157       .  T
C2821      C2822   1.415       .  A
C2822      C2823   1.429       .  A
C2822      C2827   1.447   1_655  S
C2823      C2824   1.427       .  A
C2823      C2830   1.447   1_655  S
C2825      C2826   1.422       .  A
C2825      C2828   1.448       .  S
C2826      C2829   1.449       .  S
C2827      N2834   1.156       .  T
C2828      N2833   1.157       .  T
C2829      N2831   1.157       .  T
C2830      N2832   1.157       .  T
C2835      C2840   1.421       .  A
C2836      C2837   1.409       .  A
C2836      C2841   1.447       .  S
C2837      C2844   1.449       .  S
C2838      C2839   1.411       .  A
C2839      C2840   1.410       .  A
C2839      C2842   1.452       .  S
C2840      C2843   1.448       .  S
C2841      N2848   1.156       .  T
C2842      N2847   1.156       .  T
C2843      N2845   1.157       .  T
C2844      N2846   1.155       .  T
