geometry optimzed in LAMMPS
_audit_creation_date              2020-11-30 
_audit_creation_method            'lammps2cif' 
_symmetry_space_group_name_H-M    'P1' 
_symmetry_Int_Tables_number       1 
_symmetry_cell_setting            triclinic 
loop_ 
_symmetry_equiv_pos_as_xyz 
  x,y,z 
_cell_length_a                    41.36394542 
_cell_length_b                    41.709922242804396 
_cell_length_c                    72.43699402596181 
_cell_angle_alpha                 90.94039191408459 
_cell_angle_beta                  90.64609204348208 
_cell_angle_gamma                 121.37900561944699 
loop_ 
_atom_site_label 
_atom_site_type_symbol 
_atom_site_fract_x 
_atom_site_fract_y 
_atom_site_fract_z 
_atom_site_charge 
C1          C  0.28234634  0.26301200  0.12546315     0.03100
C2          C  0.31075905  0.25875836  0.13366544    -0.13000
C3          C  0.33590051  0.28483876  0.14705504     0.00600
C4          C  0.33199157  0.31515346  0.15235793    -0.11600
C5          C  0.30376513  0.31995595  0.14431270     0.03100
C6          C  0.27917216  0.29379835  0.13077450    -0.11000
H7          H  0.31324252  0.23502973  0.12961166     0.08700
H8          H  0.35105215  0.33512737  0.16281819     0.06200
H9          H  0.25726419  0.29714546  0.12448276     0.06100
C10         C  0.63591876  0.27797309  0.25663141     0.45500
H11         H  0.63680014  0.27907533  0.27197342    -0.03600
C12         C  0.63427247  0.27503683  0.22058981     0.45500
H13         H  0.63364510  0.27406887  0.20524102    -0.03600
C14         C  0.59788304  0.26934853  0.24801861    -0.17300
C15         C  0.66633048  0.31460748  0.24788627    -0.17000
C16         C  0.64226399  0.24758393  0.24835641    -0.17400
C17         C  0.59761697  0.26882619  0.22899605    -0.17400
C18         C  0.66529342  0.31300093  0.22890855    -0.16900
C19         C  0.64134603  0.24593695  0.22937254    -0.17300
C20         C  0.30030805  0.61978107  0.25424054     0.45500
H21         H  0.30072663  0.62003504  0.26958368    -0.03600
C22         C  0.29946196  0.61929571  0.21825048     0.45500
H23         H  0.29895933  0.61905932  0.20290842    -0.03600
C24         C  0.33690325  0.65158397  0.24604625    -0.17300
C25         C  0.29532233  0.58364965  0.24537914    -0.17000
C26         C  0.26854692  0.62404135  0.24579066    -0.17400
C27         C  0.33682904  0.65099240  0.22702969    -0.17400
C28         C  0.29431806  0.58322442  0.22636844    -0.16900
C29         C  0.26827486  0.62394052  0.22680413    -0.17300
C30         C  0.96115887  0.65880715  0.13938050     0.03100
C31         C  0.92743264  0.62687461  0.14496609    -0.13000
C32         C  0.92841986  0.59910220  0.15517339     0.00600
C33         C  0.96348127  0.60300487  0.15942535    -0.11600
C34         C  0.99751715  0.63436151  0.15379223     0.03100
C35         C  0.99613045  0.66243483  0.14395248    -0.11000
H36         H  0.90041934  0.62417195  0.14186454     0.08700
H37         H  0.96421950  0.58151718  0.16729215     0.06200
H38         H  0.02217461  0.68651678  0.13934151     0.06100
C39         C  0.68434767  0.94813208  0.13650275     0.03100
C40         C  0.65249083  0.91387503  0.14172329    -0.13000
C41         C  0.62521070  0.91342682  0.15328537     0.00600
C42         C  0.63021421  0.94752533  0.15991893    -0.11600
C43         C  0.66182070  0.98191877  0.15507824     0.03100
C44         C  0.68869949  0.98209506  0.14332137    -0.11000
H45         H  0.64812457  0.88750656  0.13631529     0.08700
H46         H  0.60929256  0.94731076  0.16888212     0.06200
H47         H  0.71329222  0.00872735  0.13977517     0.06100
C48         C  0.97380670  0.67294911  0.33672383     0.03100
C49         C  0.93925440  0.64183410  0.33011129    -0.13000
C50         C  0.93878533  0.61598680  0.31720917     0.00600
C51         C  0.97330984  0.62157648  0.31094624    -0.11600
C52         C  0.00810555  0.65230996  0.31730146     0.03100
C53         C  0.00807785  0.67788913  0.33018385    -0.11000
H54         H  0.91273251  0.63746731  0.33515096     0.08700
H55         H  0.97309623  0.60095359  0.30157378     0.06200
H56         H  0.03479792  0.70199773  0.33491611     0.06100
C57         C  0.68117860  0.95753818  0.34384312     0.03100
C58         C  0.64860184  0.92306726  0.33863052    -0.13000
C59         C  0.62044998  0.92215368  0.32717313     0.00600
C60         C  0.62527052  0.95605469  0.32099389    -0.11600
C61         C  0.65743938  0.99057031  0.32621612     0.03100
C62         C  0.68520386  0.99116796  0.33771272    -0.11000
H63         H  0.64532857  0.89705655  0.34338034     0.08700
H64         H  0.60400043  0.95562481  0.31194108     0.06200
H65         H  0.71019441  0.01782570  0.34172255    -0.00900
C66         C  0.27099452  0.25745285  0.34004946     0.03100
C67         C  0.26965154  0.28854894  0.33388634    -0.13000
C68         C  0.29553532  0.31289582  0.32098661     0.00600
C69         C  0.32317878  0.30598058  0.31434712    -0.11600
C70         C  0.32541718  0.27542067  0.32048451     0.03100
C71         C  0.29902473  0.25111436  0.33324633    -0.11000
H72         H  0.24890850  0.29428382  0.33943461     0.08700
H73         H  0.34264139  0.32405313  0.30404323     0.06200
H74         H  0.30036693  0.22727346  0.33788472     0.06100
O75         O  0.05258528  0.93644393  0.50224075    -0.80900
O76         O  0.94374380  0.95840935  0.45342375    -0.65600
O77         O  0.01834430  0.97487254  0.48970710    -1.12200
C78         C  0.91129229  0.88832831  0.52389815     1.06000
O79         O  0.90920351  0.96533265  0.47434603    -0.78800
O80         O  0.92575712  0.97271906  0.51076600    -0.66400
Ni81       Ni  0.06129274  0.97195560  0.48340593     1.34900
C82         C  0.95624101  0.98855045  0.52038984     0.84700
O83         O  0.01944280  0.00404850  0.45518400    -0.79300
O84         O  0.07357626  0.00789757  0.46442015    -0.89600
C85         C  0.91711390  0.96365246  0.45757090     0.84300
O86         O  0.03821710  0.93139799  0.46563049    -0.67800
O87         O  0.89202762  0.89678881  0.51333439    -0.87100
C88         C  0.00774650  0.91662624  0.45602474     0.85100
C89         C  0.05519485  0.01804401  0.45423743     1.06700
H90         H  0.93798178  0.90539706  0.48229172     0.38500
O91         O  0.94696987  0.93017256  0.48748824    -1.09800
O92         O  0.98061011  0.97858603  0.51950669    -0.66400
Ni93       Ni  0.98333962  0.93907883  0.50641788     1.26300
O94         O  0.98419657  0.92744129  0.45733751    -0.66600
O95         O  0.94691443  0.90249864  0.52256579    -0.78900
C96         C  0.04764381  0.94073835  0.51918001     0.84500
O97         O  0.02242720  0.94783734  0.52379644    -0.66100
Ni98       Ni  0.90286896  0.93125353  0.49365670     1.27400
Ni99       Ni  0.98221971  0.96666944  0.47093423     1.26100
H100        H  0.02805483  0.99982122  0.49489911     0.39100
O101        O  0.97143425  0.87110003  0.00746230    -0.80900
O102        O  0.99527467  0.99242084  0.95111668    -0.65600
O103        O  0.00915559  0.94179955  0.99092826    -1.12200
C104        C  0.92194469  0.96709853  0.02068352     1.06000
O105        O  0.00268952  0.03788588  0.96994362    -0.78800
O106        O  0.00866635  0.03635956  0.00671504    -0.66400
Ni107      Ni  0.00418917  0.89411615  0.98684849     1.34900
C108        C  0.02455667  0.02400487  0.01703106     0.84700
O109        O  0.04028036  0.96468928  0.95595764    -0.79300
O110        O  0.03726045  0.91262295  0.96613844    -0.89600
C111        C  0.99967121  0.02457882  0.95368745     0.84300
O112        O  0.96056270  0.87222748  0.97089640    -0.67800
O113        O  0.93119027  0.99259433  0.00881713    -0.87100
C114        C  0.94882398  0.88648217  0.95925819     0.85100
C115        C  0.05007013  0.94028719  0.95529975     1.06700
H116        H  0.94044109  0.94933778  0.98055786     0.38500
O117        O  0.96534364  0.96691733  0.98572531    -1.09800
O118        O  0.01342385  0.98932758  0.01781335    -0.66400
Ni119      Ni  0.97299325  0.94370935  0.00639977     1.26300
O120        O  0.96348310  0.92168559  0.95784840    -0.66600
O121        O  0.93634586  0.94646884  0.02138492    -0.78900
C122        C  0.97396402  0.88487825  0.02359002     0.84500
O123        O  0.98091371  0.91812302  0.02591755    -0.66100
Ni124      Ni  0.96725462  0.01331924  0.98937480     1.27400
Ni125      Ni  0.00260582  0.96629992  0.97049475     1.26100
H126        H  0.03431083  0.95831722  0.99606193     0.39100
C127        C  0.98351877  0.24004882  0.63238518     0.03100
C128        C  0.94952250  0.23640762  0.63845034    -0.13000
C129        C  0.95008219  0.26329845  0.65058391     0.00600
C130        C  0.98495761  0.29435554  0.65646039    -0.11600
C131        C  0.01917625  0.29881100  0.65053993     0.03100
C132        C  0.01829990  0.27140817  0.63860751    -0.11000
H133        H  0.92255232  0.21202775  0.63422343     0.08700
H134        H  0.98545298  0.31517851  0.66580177     0.06200
H135        H  0.04469506  0.27508795  0.63379603     0.06100
C136        C  0.99801537  0.24148946  0.83615146     0.03100
C137        C  0.96374066  0.23680812  0.82949482    -0.13000
C138        C  0.96361661  0.26387055  0.81828434     0.00600
C139        C  0.99825626  0.29565291  0.81364869    -0.11600
C140        C  0.03281279  0.30072470  0.82009744     0.03100
C141        C  0.03243313  0.27372392  0.83155748    -0.11000
H142        H  0.93714496  0.21204819  0.83302947     0.08700
H143        H  0.99830957  0.31690918  0.80522581     0.06200
H144        H  0.05896562  0.27706895  0.83633638     0.06100
C145        C  0.65924003  0.28441113  0.72193280     0.45500
H146        H  0.65738985  0.28327988  0.70659954    -0.03600
C147        C  0.66413561  0.28654593  0.75790310     0.45500
H148        H  0.66604237  0.28754404  0.77323468    -0.03600
C149        C  0.69044991  0.27850999  0.72952606    -0.17300
C150        C  0.66791451  0.32205178  0.73068413    -0.17000
C151        C  0.62299767  0.25415650  0.73107518    -0.17400
C152        C  0.69284766  0.27916932  0.74848792    -0.17400
C153        C  0.67011553  0.32287477  0.74968186    -0.16900
C154        C  0.62537628  0.25558224  0.75005679    -0.17300
C155        C  0.32605212  0.62023768  0.72003696     0.45500
H156        H  0.32405704  0.61962633  0.70471422    -0.03600
C157        C  0.33140406  0.62265924  0.75601509     0.45500
H158        H  0.33339490  0.62349819  0.77134795    -0.03600
C159        C  0.32124297  0.65091658  0.72923634    -0.17300
C160        C  0.29641194  0.58345085  0.72891992    -0.17000
C161        C  0.36436722  0.62759226  0.72744212    -0.17400
C162        C  0.32376192  0.65205704  0.74814067    -0.17400
C163        C  0.29915884  0.58494409  0.74793224    -0.16900
C164        C  0.36709876  0.62878527  0.74643095    -0.17300
C165        C  0.27838374  0.94197488  0.63582191     0.03100
C166        C  0.27261762  0.90848722  0.64323457    -0.13000
C167        C  0.29865729  0.90920948  0.65603291     0.00600
C168        C  0.33077278  0.94366252  0.66132707    -0.11600
C169        C  0.33746094  0.97733276  0.65385790     0.03100
C170        C  0.31100188  0.97634317  0.64116489    -0.11000
H171        H  0.24790582  0.88179995  0.63901971     0.08700
H172        H  0.35086219  0.94418660  0.67124378     0.06200
H173        H  0.31579210  0.00226954  0.63545331     0.06100
C174        C  0.69352516  0.64784623  0.63574681     0.03100
C175        C  0.69546432  0.61791389  0.64309867    -0.13000
C176        C  0.66577044  0.59059043  0.65358785     0.00600
C177        C  0.63401620  0.59366348  0.65676023    -0.11600
C178        C  0.63159208  0.62351497  0.64963193     0.03100
C179        C  0.66150897  0.65042869  0.63912855    -0.11000
H180        H  0.72007923  0.61582086  0.64059915     0.08700
H181        H  0.61120191  0.57284268  0.66494727     0.06200
H182        H  0.65992589  0.67355350  0.63359995     0.06100
C183        C  0.69717206  0.65523787  0.84565375     0.03100
C184        C  0.66747892  0.65865467  0.83843073    -0.13000
C185        C  0.64284399  0.63354575  0.82462909     0.00600
C186        C  0.64791311  0.60461215  0.81813181    -0.11600
C187        C  0.67703223  0.60035076  0.82537922     0.03100
C188        C  0.70145186  0.62566265  0.83922328    -0.11000
H189        H  0.66383209  0.68121143  0.84337569     0.08700
H190        H  0.62854577  0.58477777  0.80768454     0.06200
H191        H  0.72460502  0.62311116  0.84449894     0.06100
C192        C  0.29086892  0.95273855  0.84409474     0.03100
C193        C  0.32235143  0.98680331  0.83848613    -0.13000
C194        C  0.34766884  0.98697154  0.82569811     0.00600
C195        C  0.34144999  0.95275097  0.81847863    -0.11600
C196        C  0.31056745  0.91842704  0.82402902     0.03100
C197        C  0.28563288  0.91864709  0.83697085    -0.11000
H198        H  0.32649829  0.01333765  0.84348449     0.08700
H199        H  0.36123369  0.95286040  0.80875854     0.06200
H200        H  0.26189194  0.89216829  0.84132047     0.06100
C201        C  0.39942933  0.63196267  0.75706526    -0.03400
C202        C  0.41279110  0.60790135  0.75297573    -0.09100
C203        C  0.44386161  0.61156425  0.76274339    -0.16800
C204        C  0.46159202  0.63899909  0.77682206     0.25400
C205        C  0.44787771  0.66249375  0.78126320    -0.18400
C206        C  0.41676348  0.65883532  0.77147543    -0.07400
C207        C  0.49389296  0.64286625  0.78657733    -0.13800
C208        C  0.52084548  0.64430511  0.79396415    -0.13500
C209        C  0.55250450  0.64353446  0.80174715     0.25300
C210        C  0.55897489  0.64670610  0.82088142    -0.18900
C211        C  0.58871096  0.64393860  0.82837817    -0.07400
C212        C  0.61207020  0.63771658  0.81678319    -0.03500
C213        C  0.60559759  0.63503385  0.79757623    -0.08800
C214        C  0.57602432  0.63798520  0.79011705    -0.16400
H215        H  0.39920407  0.58633905  0.74221746     0.11700
H216        H  0.45409975  0.59305531  0.75930011     0.11000
H217        H  0.46131705  0.68370125  0.79219703     0.10900
H218        H  0.40666996  0.67736576  0.77494288     0.11500
H219        H  0.54076836  0.65080567  0.82999602     0.11500
H220        H  0.59294773  0.64581229  0.84322953     0.11500
H221        H  0.62348837  0.63072625  0.78834205     0.11600
H222        H  0.57122584  0.63550071  0.77528694     0.10400
C223        C  0.39431334  0.63113651  0.71495273    -0.03400
C224        C  0.43202076  0.66104333  0.71720115    -0.09100
C225        C  0.46041639  0.66269683  0.70616856    -0.16800
C226        C  0.45145330  0.63460041  0.69270132     0.25400
C227        C  0.41377977  0.60514572  0.69015929    -0.18400
C228        C  0.38534328  0.60354173  0.70114301    -0.07400
C229        C  0.48106341  0.63517390  0.68204032    -0.13800
C230        C  0.50619592  0.63466446  0.67393855    -0.13500
C231        C  0.53671265  0.63265596  0.66564796     0.25300
C232        C  0.53114349  0.59780123  0.66006595    -0.18900
C233        C  0.56168651  0.59502410  0.65412929    -0.07400
C234        C  0.59839214  0.62709374  0.65378092    -0.03500
C235        C  0.60337479  0.66229199  0.65854493    -0.08800
C236        C  0.57274858  0.66500548  0.66446782    -0.16400
H237        H  0.43951647  0.68281575  0.72765205     0.11700
H238        H  0.48942410  0.68560413  0.70831129     0.11000
H239        H  0.40646832  0.58311893  0.67987413     0.10900
H240        H  0.35651076  0.58014625  0.69924455     0.11500
H241        H  0.50338539  0.57256929  0.66081945     0.11500
H242        H  0.55672073  0.56764512  0.65016413     0.11500
H243        H  0.63123672  0.68750766  0.65852895     0.11600
H244        H  0.57746709  0.69215796  0.66874705     0.10400
C245        C  0.30459978  0.88252616  0.81619799    -0.03400
C246        C  0.29608504  0.85235946  0.82768672    -0.09100
C247        C  0.29309559  0.81957913  0.82038355    -0.16800
C248        C  0.29829939  0.81643181  0.80150652     0.25400
C249        C  0.30557520  0.84587744  0.78990043    -0.18400
C250        C  0.30875188  0.87869139  0.79717915    -0.07400
C251        C  0.29829833  0.78404140  0.79415165    -0.13800
C252        C  0.30051241  0.75846178  0.78755544    -0.13500
C253        C  0.30514760  0.72965129  0.77896471     0.25300
C254        C  0.33946804  0.73077432  0.78107693    -0.18900
C255        C  0.34509831  0.70456077  0.77161920    -0.07400
C256        C  0.31656235  0.67714581  0.75985944    -0.03500
C257        C  0.28179467  0.67542227  0.75822664    -0.08800
C258        C  0.27613949  0.70154716  0.76770329    -0.16400
H259        H  0.29297428  0.85461883  0.84239294     0.11700
H260        H  0.28754454  0.79704356  0.82952214     0.11000
H261        H  0.30954554  0.84378439  0.77526716     0.10900
H262        H  0.31476045  0.90124262  0.78796272     0.11500
H263        H  0.36221123  0.75247873  0.78967368     0.11500
H264        H  0.37221192  0.70670460  0.77288165     0.11500
H265        H  0.25936972  0.65434675  0.74926173     0.11600
H266        H  0.24947975  0.70033165  0.76592129     0.10400
C267        C  0.29337039  0.87411669  0.66357564    -0.03400
C268        C  0.29935754  0.87197289  0.68253831    -0.09100
C269        C  0.29818590  0.84037396  0.68944566    -0.16800
C270        C  0.29103029  0.81059152  0.67749935     0.25400
C271        C  0.28397630  0.81199128  0.65867508    -0.18400
C272        C  0.28498560  0.84357696  0.65173744    -0.07400
C273        C  0.29295172  0.77965719  0.68454150    -0.13800
C274        C  0.29682775  0.75565787  0.69128080    -0.13500
C275        C  0.30343084  0.72906351  0.70021428     0.25300
C276        C  0.27670090  0.69056387  0.69852854    -0.18900
C277        C  0.28279751  0.66494126  0.70774291    -0.07400
C278        C  0.31572151  0.67763344  0.71859177    -0.03500
C279        C  0.34248218  0.71625784  0.72020627    -0.08800
C280        C  0.33634136  0.74187735  0.71105264    -0.16400
H281        H  0.30553593  0.89502569  0.69194987     0.11700
H282        H  0.30366611  0.83951487  0.70403873     0.11000
H283        H  0.27858313  0.78910929  0.64931749     0.10900
H284        H  0.28067389  0.84477683  0.63705040     0.11500
H285        H  0.25092430  0.68043303  0.69036113     0.11500
H286        H  0.26119997  0.63550143  0.70696319     0.11500
H287        H  0.36786386  0.72649921  0.72870735     0.11600
H288        H  0.35706139  0.77165775  0.71254893     0.10400
C289        C  0.66793428  0.55893572  0.66131486    -0.03400
C290        C  0.68187129  0.54032662  0.65070831    -0.09100
C291        C  0.68414439  0.51073015  0.65805915    -0.16800
C292        C  0.67257293  0.49937168  0.67609519     0.25400
C293        C  0.65841094  0.51751006  0.68670283    -0.18400
C294        C  0.65609746  0.54707931  0.67938546    -0.07400
C295        C  0.67531886  0.46925866  0.68381612    -0.13800
C296        C  0.67685250  0.44404507  0.69083123    -0.13500
C297        C  0.67694085  0.41359299  0.69985259     0.25300
C298        C  0.70260699  0.42090637  0.71441101    -0.18900
C299        C  0.70067743  0.39118432  0.72404537    -0.07400
C300        C  0.67257466  0.35377540  0.71945186    -0.03500
C301        C  0.64830107  0.34678627  0.70421314    -0.08800
C302        C  0.65024707  0.37645543  0.69457134    -0.16400
H303        H  0.69065444  0.54841590  0.63666658     0.11700
H304        H  0.69495824  0.49675247  0.64968760     0.11000
H305        H  0.64937536  0.50895246  0.70068363     0.10900
H306        H  0.64563291  0.56107251  0.68797505     0.11500
H307        H  0.72371728  0.44955375  0.71849438     0.11500
H308        H  0.72091605  0.39749499  0.73519273     0.11500
H309        H  0.62711890  0.31850367  0.70000373     0.11600
H310        H  0.63042958  0.37041819  0.68322405     0.10400
C311        C  0.67229408  0.35325757  0.76149674    -0.03400
C312        C  0.70387301  0.37533252  0.77318565    -0.09100
C313        C  0.70692304  0.40579280  0.78326249    -0.16800
C314        C  0.67815022  0.41400215  0.78191635     0.25400
C315        C  0.64604133  0.39120302  0.77071254    -0.18400
C316        C  0.64314497  0.36102174  0.76053611    -0.07400
C317        C  0.68206031  0.44665889  0.79129555    -0.13800
C318        C  0.68419648  0.47435248  0.79809315    -0.13500
C319        C  0.68496218  0.50736043  0.80503417     0.25300
C320        C  0.68130988  0.53082318  0.79268867    -0.18900
C321        C  0.67960163  0.56156576  0.79930050    -0.07400
C322        C  0.68164752  0.56936301  0.81838337    -0.03500
C323        C  0.68645652  0.54635925  0.83069343    -0.08800
C324        C  0.68792102  0.51541901  0.82404832    -0.16400
H325        H  0.72667338  0.36981745  0.77399112     0.11700
H326        H  0.73195512  0.42329372  0.79182808     0.11000
H327        H  0.62357687  0.39719886  0.76956509     0.10900
H328        H  0.61846906  0.34403949  0.75166629     0.11500
H329        H  0.67914022  0.52498613  0.77794748     0.11500
H330        H  0.67638407  0.57912392  0.78951174     0.11500
H331        H  0.68786822  0.55162644  0.84545738     0.11600
H332        H  0.69069220  0.49744148  0.83374268     0.10400
C333        C  0.59075555  0.22388512  0.72012914    -0.03400
C334        C  0.57167640  0.23254027  0.70687870    -0.09100
C335        C  0.54075127  0.20389780  0.69684338    -0.16800
C336        C  0.52861118  0.16631925  0.70000378     0.25400
C337        C  0.54772788  0.15745896  0.71309861    -0.18400
C338        C  0.57876474  0.18612198  0.72307431    -0.07400
C339        C  0.49616141  0.13680528  0.69007271    -0.13800
C340        C  0.46885680  0.11115498  0.68223964    -0.13500
C341        C  0.43653965  0.07884973  0.67371017     0.25300
C342        C  0.43873205  0.04747581  0.66887195    -0.18900
C343        C  0.40678870  0.01492472  0.66180858    -0.07400
C344        C  0.37207228  0.01321481  0.65960366    -0.03500
C345        C  0.37038802  0.04529214  0.66395177    -0.08800
C346        C  0.40249082  0.07793881  0.67101345    -0.16400
H347        H  0.57981692  0.26125323  0.70468844     0.11700
H348        H  0.52602348  0.21103139  0.68680814     0.11000
H349        H  0.53854160  0.12843597  0.71565090     0.10900
H350        H  0.59332814  0.17890295  0.73315930     0.11500
H351        H  0.46497815  0.04794004  0.67086690     0.11500
H352        H  0.40911063  0.99087996  0.65828034     0.11500
H353        H  0.34398201  0.04467767  0.66253624     0.11600
H354        H  0.40052942  0.10211244  0.67476447     0.10400
C355        C  0.59397315  0.23008253  0.76214808    -0.03400
C356        C  0.60092562  0.21328984  0.77707983    -0.09100
C357        C  0.57103914  0.18757941  0.78786449    -0.16800
C358        C  0.53398702  0.17862563  0.78389577     0.25400
C359        C  0.52707881  0.19625606  0.76942178    -0.18400
C360        C  0.55692716  0.22205194  0.75869199    -0.07400
C361        C  0.50274186  0.14954249  0.79378856    -0.13800
C362        C  0.47585406  0.12320519  0.80072154    -0.13500
C363        C  0.44314761  0.08970223  0.80723360     0.25300
C364        C  0.41826470  0.06201508  0.79443512    -0.18900
C365        C  0.38707842  0.02875829  0.80047952    -0.07400
C366        C  0.38020221  0.02282984  0.81943306    -0.03500
C367        C  0.40497064  0.05095140  0.83224667    -0.08800
C368        C  0.43643801  0.08417105  0.82616505    -0.16400
H369        H  0.62925313  0.21913424  0.78002359     0.11700
H370        H  0.57668925  0.17401887  0.79900025     0.11000
H371        H  0.49853880  0.18957368  0.76622427     0.10900
H372        H  0.55101977  0.23539255  0.74755201     0.11500
H373        H  0.42314898  0.06601071  0.77975975     0.11500
H374        H  0.36820624  0.00764930  0.79034850     0.11500
H375        H  0.40037286  0.04685289  0.84692845     0.11600
H376        H  0.45561706  0.10534850  0.83619545     0.10400
C377        C  0.71866005  0.27113881  0.75909521    -0.03400
C378        C  0.72173347  0.24002928  0.75428350    -0.09100
C379        C  0.74794006  0.23401434  0.76347431    -0.16800
C380        C  0.77099698  0.25871646  0.77774014     0.25400
C381        C  0.76689399  0.28879366  0.78313815    -0.18400
C382        C  0.74068625  0.29484473  0.77393043    -0.07400
C383        C  0.80039322  0.25460648  0.78604966    -0.13800
C384        C  0.82682236  0.25314280  0.79217464    -0.13500
C385        C  0.86027004  0.25385581  0.79860417     0.25300
C386        C  0.86354559  0.24547497  0.81691749    -0.18900
C387        C  0.89690717  0.24800977  0.82327195    -0.07400
C388        C  0.92746395  0.25921371  0.81138955    -0.03500
C389        C  0.92366601  0.26702124  0.79294950    -0.08800
C390        C  0.89028511  0.26432099  0.78661354    -0.16400
H391        H  0.70419248  0.22065982  0.74325854     0.11700
H392        H  0.75070360  0.21053761  0.75922832     0.11000
H393        H  0.78456421  0.30806967  0.79417587     0.10900
H394        H  0.73850280  0.31870755  0.77799783     0.11500
H395        H  0.84055595  0.23750712  0.82634098     0.11500
H396        H  0.89920904  0.24217417  0.83758033     0.11500
H397        H  0.94656602  0.27526074  0.78344286     0.11600
H398        H  0.88805664  0.27083134  0.77240830     0.10400
C399        C  0.06909297  0.33369695  0.81429449    -0.03400
C400        C  0.09921176  0.35466835  0.82703991    -0.09100
C401        C  0.13267451  0.38662816  0.82144002    -0.16800
C402        C  0.13642052  0.39771637  0.80304201     0.25400
C403        C  0.10689187  0.37646327  0.79025155    -0.18400
C404        C  0.07351381  0.34474178  0.79581177    -0.07400
C405        C  0.16963391  0.43156480  0.79714417    -0.13800
C406        C  0.19484419  0.45981374  0.79051826    -0.13500
C407        C  0.22162319  0.49280581  0.78081507     0.25300
C408        C  0.20824493  0.50948599  0.76876987    -0.18900
C409        C  0.23359630  0.54007853  0.75838194    -0.07400
C410        C  0.27263713  0.55429691  0.75991453    -0.03500
C411        C  0.28613387  0.53832748  0.77240852    -0.08800
C412        C  0.26066547  0.50746762  0.78273292    -0.16400
H413        H  0.09649508  0.34688349  0.84138026     0.11700
H414        H  0.15532088  0.40292754  0.83147765     0.11000
H415        H  0.10948607  0.38469241  0.77597700     0.10900
H416        H  0.05107970  0.32878488  0.78563358     0.11500
H417        H  0.17813490  0.49842836  0.76717705     0.11500
H418        H  0.22277939  0.55232638  0.74891996     0.11500
H419        H  0.31620554  0.54900209  0.77371420     0.11600
H420        H  0.27133728  0.49473340  0.79196550     0.10400
C421        C  0.71624846  0.27413233  0.71721857    -0.03400
C422        C  0.75544744  0.29949566  0.71877889    -0.09100
C423        C  0.78010980  0.29464464  0.70774634    -0.16800
C424        C  0.76587657  0.26431433  0.69509983     0.25400
C425        C  0.72668661  0.23918518  0.69328082    -0.18400
C426        C  0.70189708  0.24426696  0.70421442    -0.07400
C427        C  0.79195779  0.25866153  0.68462235    -0.13800
C428        C  0.81661973  0.25612455  0.67731726    -0.13500
C429        C  0.84901620  0.25581689  0.67049219     0.25300
C430        C  0.85150385  0.24868166  0.65175539    -0.18900
C431        C  0.88403849  0.25018298  0.64526282    -0.07400
C432        C  0.91448140  0.25913782  0.65744875    -0.03500
C433        C  0.91140161  0.26566738  0.67627088    -0.08800
C434        C  0.87891090  0.26399634  0.68272491    -0.16400
H435        H  0.76689776  0.32284724  0.72865120     0.11700
H436        H  0.81034730  0.31425689  0.70926559     0.11000
H437        H  0.71537539  0.21552821  0.68359893     0.10900
H438        H  0.67167997  0.22442508  0.70290642     0.11500
H439        H  0.82858664  0.24248298  0.64215088     0.11500
H440        H  0.88586740  0.24537345  0.63067756     0.11500
H441        H  0.93424598  0.27221005  0.68598981     0.11600
H442        H  0.87729448  0.26953816  0.69724887     0.10400
C443        C  0.05551593  0.33213952  0.65711630    -0.03400
C444        C  0.05970706  0.36786546  0.65777427    -0.09100
C445        C  0.09262935  0.39888444  0.66530300    -0.16800
C446        C  0.12187748  0.39471166  0.67226295     0.25400
C447        C  0.11832343  0.35942946  0.67135446    -0.18400
C448        C  0.08537570  0.32830933  0.66376329    -0.07400
C449        C  0.15493100  0.42649550  0.68078930    -0.13800
C450        C  0.18156644  0.45355232  0.68830467    -0.13500
C451        C  0.21210486  0.48618314  0.69773183     0.25300
C452        C  0.23244657  0.48208525  0.71211690    -0.18900
C453        C  0.26066364  0.51372295  0.72193614    -0.07400
C454        C  0.26843677  0.54983363  0.71768891    -0.03500
C455        C  0.24910939  0.55374296  0.70266504    -0.08800
C456        C  0.22087668  0.52212715  0.69286431    -0.16400
H457        H  0.03734091  0.37172893  0.65257674     0.11700
H458        H  0.09506736  0.42603956  0.66590173     0.11000
H459        H  0.14074894  0.35586259  0.67676529     0.10900
H460        H  0.08273609  0.30107668  0.66360965     0.11500
H461        H  0.22622468  0.45443071  0.71587528     0.11500
H462        H  0.27618548  0.50991881  0.73293737     0.11500
H463        H  0.25517261  0.58109296  0.69869833     0.11600
H464        H  0.20556763  0.52570034  0.68164701     0.10400
C465        C  0.91733369  0.86099356  0.94639736    -0.03400
C466        C  0.89716088  0.82193288  0.94887677    -0.09100
C467        C  0.86883899  0.79772648  0.93618002    -0.16800
C468        C  0.86033296  0.81214510  0.92082349     0.25400
C469        C  0.88001438  0.85095049  0.91827107    -0.18400
C470        C  0.90828112  0.87526802  0.93099539    -0.07400
C471        C  0.83159240  0.78693211  0.90766740    -0.13800
C472        C  0.80749890  0.76475275  0.89694139    -0.13500
C473        C  0.77894490  0.73728378  0.88438610     0.25300
C474        C  0.76614483  0.74871695  0.86937669    -0.18900
C475        C  0.73908239  0.72197343  0.85693682    -0.07400
C476        C  0.72459201  0.68343418  0.85933629    -0.03500
C477        C  0.73729054  0.67220648  0.87459179    -0.08800
C478        C  0.76428466  0.69899658  0.88704183    -0.16400
H479        H  0.90341584  0.81002061  0.96055882     0.11700
H480        H  0.85374507  0.76771660  0.93827428     0.11000
H481        H  0.87369702  0.86238665  0.90639557     0.10900
H482        H  0.92346297  0.90515639  0.92859385     0.11500
H483        H  0.77736219  0.77828820  0.86717988     0.11500
H484        H  0.73015741  0.73146955  0.84519611     0.11500
H485        H  0.72628973  0.64272410  0.87689159     0.11600
H486        H  0.77391833  0.68986571  0.89866703     0.10400
C487        C  0.07760066  0.94358842  0.94133372    -0.03400
C488        C  0.08714340  0.91577528  0.93991513    -0.09100
C489        C  0.11348911  0.91868290  0.92714661    -0.16800
C490        C  0.13080119  0.94936023  0.91553911     0.25400
C491        C  0.12119390  0.97696930  0.91657399    -0.18400
C492        C  0.09469469  0.97411008  0.92937682    -0.07400
C493        C  0.15874692  0.95241512  0.90282660    -0.13800
C494        C  0.18206381  0.95345145  0.89259063    -0.13500
C495        C  0.20945063  0.95337323  0.88050828     0.25300
C496        C  0.19749385  0.92628427  0.86625128    -0.18900
C497        C  0.22390911  0.92605441  0.85446985    -0.07400
C498        C  0.26285442  0.95278484  0.85685365    -0.03500
C499        C  0.27458635  0.97982988  0.87132134    -0.08800
C500        C  0.24804816  0.98012148  0.88303007    -0.16400
H501        H  0.07440763  0.89171905  0.94875321     0.11700
H502        H  0.12056645  0.89707289  0.92642929     0.11000
H503        H  0.13436258  0.00080238  0.90759106     0.10900
H504        H  0.08786355  0.99587990  0.93001234     0.11500
H505        H  0.16768583  0.90544711  0.86415846     0.11500
H506        H  0.21369092  0.90530069  0.84329552     0.11500
H507        H  0.30430095  0.00051427  0.87374340     0.11600
H508        H  0.25765271  0.00112899  0.89408332     0.10400
C509        C  0.00165382  0.04717726  0.93773511    -0.03400
C510        C  0.00461964  0.08203946  0.94069156    -0.09100
C511        C  0.00376293  0.10238469  0.92580783    -0.16800
C512        C  0.00001741  0.08831942  0.90775496     0.25400
C513        C  0.99763757  0.05394448  0.90458334    -0.18400
C514        C  0.99843754  0.03342621  0.91950248    -0.07400
C515        C  0.99839692  0.10947884  0.89269822    -0.13800
C516        C  0.99764898  0.13007937  0.88147373    -0.13500
C517        C  0.99800008  0.15773886  0.86976708     0.25300
C518        C  0.97549976  0.14693172  0.85361893    -0.18900
C519        C  0.97538235  0.17418392  0.84266051    -0.07400
C520        C  0.99792166  0.21251229  0.84772623    -0.03500
C521        C  0.02048702  0.22304977  0.86392887    -0.08800
C522        C  0.02040361  0.19580133  0.87490084    -0.16400
H523        H  0.00696096  0.09336863  0.95453429     0.11700
H524        H  0.00566340  0.12898714  0.92839921     0.11000
H525        H  0.99479728  0.04286017  0.89063638     0.10900
H526        H  0.99598550  0.00662582  0.91678696     0.11500
H527        H  0.95800228  0.11752916  0.84954592     0.11500
H528        H  0.95801910  0.16539787  0.83014021     0.11500
H529        H  0.03777204  0.25233454  0.86822377     0.11600
H530        H  0.03768678  0.20441038  0.88745482     0.10400
C531        C  0.72456098  0.67622988  0.62431576    -0.03400
C532        C  0.76287817  0.69115427  0.62937790    -0.09100
C533        C  0.79177767  0.71860533  0.61867369    -0.16800
C534        C  0.78264217  0.73125375  0.60278921     0.25400
C535        C  0.74466940  0.71621507  0.59759795    -0.18400
C536        C  0.71587183  0.68891847  0.60823172    -0.07400
C537        C  0.81164365  0.75963725  0.59159157    -0.13800
C538        C  0.83229308  0.78294888  0.58085561    -0.13500
C539        C  0.85273596  0.80985890  0.56684238     0.25300
C540        C  0.83437718  0.82404845  0.55650746    -0.18900
C541        C  0.85334382  0.84934701  0.54249298    -0.07400
C542        C  0.89112512  0.86096571  0.53860526    -0.03500
C543        C  0.90945624  0.84668672  0.54914624    -0.08800
C544        C  0.89030799  0.82120019  0.56313844    -0.16400
H545        H  0.77044306  0.68212129  0.64176558     0.11700
H546        H  0.82110391  0.73005837  0.62282602     0.11000
H547        H  0.73727908  0.72564524  0.58528433     0.10900
H548        H  0.68672605  0.67751435  0.60378736     0.11500
H549        H  0.80527016  0.81541729  0.55923527     0.11500
H550        H  0.83842149  0.85993424  0.53477591     0.11500
H551        H  0.93851270  0.85505340  0.54653472     0.11600
H552        H  0.90474682  0.81027466  0.57100741     0.10400
C553        C  0.96265480  0.01933282  0.53351084    -0.03400
C554        C  0.99469937  0.03723287  0.54543617    -0.09100
C555        C  0.99924828  0.06486252  0.55833096    -0.16800
C556        C  0.97188873  0.07500003  0.55950421     0.25400
C557        C  0.94007250  0.05749192  0.54764888    -0.18400
C558        C  0.93547693  0.02998565  0.53477969    -0.07400
C559        C  0.97622353  0.10336881  0.57275150    -0.13800
C560        C  0.97849383  0.12709685  0.58343268    -0.13500
C561        C  0.97995772  0.15548684  0.59574137     0.25300
C562        C  0.95350021  0.16656666  0.59360919    -0.18900
C563        C  0.95478124  0.19411786  0.60542315    -0.07400
C564        C  0.98254617  0.21105160  0.61964910    -0.03500
C565        C  0.00907617  0.19974926  0.62166893    -0.08800
C566        C  0.00777142  0.17220242  0.60980079    -0.16400
H567        H  0.01604973  0.02965395  0.54493284     0.11700
H568        H  0.02402516  0.07819783  0.56743133     0.11000
H569        H  0.91867299  0.06501336  0.54838578     0.10900
H570        H  0.91034196  0.01682441  0.52592663     0.11500
H571        H  0.93190243  0.15398044  0.58275615     0.11500
H572        H  0.93427684  0.20247736  0.60326619     0.11500
H573        H  0.03048774  0.21175985  0.63260505     0.11600
H574        H  0.02837959  0.16385514  0.61163927     0.10400
C575        C  0.25031994  0.94084737  0.62249001    -0.03400
C576        C  0.26222735  0.96270242  0.60659737    -0.09100
C577        C  0.23560391  0.96097215  0.59390446    -0.16800
C578        C  0.19682942  0.93749319  0.59697225     0.25400
C579        C  0.18474646  0.91583578  0.61279340    -0.18400
C580        C  0.21128938  0.91747206  0.62547545    -0.07400
C581        C  0.16940620  0.93566477  0.58393343    -0.13800
C582        C  0.14657562  0.93443253  0.57300755    -0.13500
C583        C  0.12020252  0.93392158  0.55971956     0.25300
C584        C  0.09241061  0.94137560  0.56532436    -0.18900
C585        C  0.06803981  0.94274908  0.55222717    -0.07400
C586        C  0.07129289  0.93671929  0.53335627    -0.03500
C587        C  0.09883616  0.92845985  0.52794396    -0.08800
C588        C  0.12309773  0.92710737  0.54103547    -0.16400
H589        H  0.29208065  0.98062610  0.60384210     0.11700
H590        H  0.24524796  0.97782329  0.58167787     0.11000
H591        H  0.15480614  0.89769866  0.61533404     0.10900
H592        H  0.20130697  0.90071078  0.63771035     0.11500
H593        H  0.08995927  0.94668550  0.57977834     0.11500
H594        H  0.04718083  0.94919110  0.55682498     0.11500
H595        H  0.10212568  0.92365700  0.51353495     0.11600
H596        H  0.14449107  0.92130473  0.53654435     0.10400
C597        C  0.07697296  0.04763994  0.44067456    -0.03400
C598        C  0.11657641  0.06446677  0.43992780    -0.09100
C599        C  0.13739498  0.09193834  0.42708211    -0.16800
C600        C  0.11912152  0.10313120  0.41475531     0.25400
C601        C  0.07979885  0.08687813  0.41541027    -0.18400
C602        C  0.05880402  0.05929847  0.42830881    -0.07400
C603        C  0.14111477  0.13093483  0.40136717    -0.13800
C604        C  0.16208816  0.15390831  0.39059499    -0.13500
C605        C  0.18939617  0.18070551  0.37820233     0.25300
C606        C  0.17808211  0.19572322  0.36419097    -0.18900
C607        C  0.20466772  0.22098005  0.35190739    -0.07400
C608        C  0.24296282  0.23150996  0.35346539    -0.03500
C609        C  0.25408926  0.21661037  0.36777042    -0.08800
C610        C  0.22746490  0.19135896  0.38001844    -0.16400
H611        H  0.13160998  0.05636140  0.44923534     0.11700
H612        H  0.16780979  0.10433746  0.42670469     0.11000
H613        H  0.06536951  0.09536235  0.40591208     0.10900
H614        H  0.02841293  0.04698190  0.42851460     0.11500
H615        H  0.14867891  0.18762654  0.36263823     0.11500
H616        H  0.19509909  0.23162432  0.34094130     0.11500
H617        H  0.28340749  0.22461369  0.36955069     0.11600
H618        H  0.23655295  0.18000168  0.39086695     0.10400
C619        C  0.89513544  0.96852092  0.44279843    -0.03400
C620        C  0.89838593  0.96047849  0.42420952    -0.09100
C621        C  0.87506731  0.96190799  0.41051972    -0.16800
C622        C  0.84846972  0.97162731  0.41522695     0.25400
C623        C  0.84586906  0.98079500  0.43358821    -0.18400
C624        C  0.86900009  0.97924219  0.44729279    -0.07400
C625        C  0.82243285  0.97032553  0.40147386    -0.13800
C626        C  0.79887468  0.96787999  0.39064115    -0.13500
C627        C  0.76927602  0.96414231  0.37850266     0.25300
C628        C  0.73137270  0.94207581  0.38358235    -0.18900
C629        C  0.70251658  0.93922658  0.37211794    -0.07400
C630        C  0.71136174  0.95874513  0.35553049    -0.03500
C631        C  0.74944366  0.98047558  0.35041117    -0.08800
C632        C  0.77823202  0.98304992  0.36181388    -0.16400
H633        H  0.91815179  0.95204871  0.42031999     0.11700
H634        H  0.87723080  0.95467365  0.39634225     0.11000
H635        H  0.82537364  0.98835340  0.43738043     0.10900
H636        H  0.86589866  0.98576030  0.46145451     0.11500
H637        H  0.72416498  0.92738988  0.39649553     0.11500
H638        H  0.67340556  0.92255731  0.37639678     0.11500
H639        H  0.75686136  0.99547313  0.33759233     0.11600
H640        H  0.80744406  0.00007568  0.35771549     0.10400
C641        C  0.97429835  0.69993953  0.35068814    -0.03400
C642        C  0.00104189  0.71396295  0.36541154    -0.09100
C643        C  0.00208205  0.73972359  0.37840505    -0.16800
C644        C  0.97646564  0.75200848  0.37695358     0.25400
C645        C  0.94948896  0.73799529  0.36244564    -0.18400
C646        C  0.94833860  0.71210545  0.34942982    -0.07400
C647        C  0.97838908  0.77928442  0.39025861    -0.13800
C648        C  0.98164307  0.80245557  0.40163369    -0.13500
C649        C  0.98748566  0.83051316  0.41549884     0.25300
C650        C  0.96084632  0.84135705  0.41772351    -0.18900
C651        C  0.96700331  0.86889750  0.43105948    -0.07400
C652        C  0.99996843  0.88605342  0.44241197    -0.03500
C653        C  0.02639191  0.87469455  0.44011753    -0.08800
C654        C  0.02019273  0.84724900  0.42679225    -0.16400
H655        H  0.02100708  0.70475062  0.36698181     0.11700
H656        H  0.02300238  0.75015789  0.38957924     0.11000
H657        H  0.92951295  0.74726453  0.36111461     0.10900
H658        H  0.92760628  0.70213730  0.33819553     0.11500
H659        H  0.93540420  0.82868334  0.40908393     0.11500
H660        H  0.94611682  0.87697291  0.43235786     0.11500
H661        H  0.05215326  0.88728234  0.44850288     0.11600
H662        H  0.04108255  0.83921409  0.42523956     0.10400
C663        C  0.89315296  0.96163167  0.03438127    -0.03400
C664        C  0.89053722  0.94413589  0.05121306    -0.09100
C665        C  0.86420805  0.94033077  0.06435160    -0.16800
C666        C  0.83988870  0.95360797  0.06079472     0.25400
C667        C  0.84205518  0.97069633  0.04399991    -0.18400
C668        C  0.86853909  0.97482139  0.03092852    -0.07400
C669        C  0.81309508  0.95030006  0.07441222    -0.13800
C670        C  0.79077870  0.94872823  0.08555398    -0.13500
C671        C  0.76429386  0.94847899  0.09849489     0.25300
C672        C  0.75442929  0.97582779  0.09755421    -0.18900
C673        C  0.72872144  0.97583026  0.10994647    -0.07400
C674        C  0.71238225  0.94844455  0.12357035    -0.03500
C675        C  0.72259222  0.92108766  0.12445723    -0.08800
C676        C  0.74831357  0.92111337  0.11200333    -0.16400
H677        H  0.90927494  0.93398227  0.05435509     0.11700
H678        H  0.86295791  0.92720130  0.07731962     0.11000
H679        H  0.82342289  0.98107829  0.04104740     0.10900
H680        H  0.86968520  0.98827962  0.01808741     0.11500
H681        H  0.76646845  0.99709675  0.08714479     0.11500
H682        H  0.72110890  0.99690724  0.10861489     0.11500
H683        H  0.71099145  0.89986988  0.13488627     0.11600
H684        H  0.75575443  0.89982468  0.11293123     0.10400
C685        C  0.96752364  0.86088546  0.03967391    -0.03400
C686        C  0.97638162  0.87612992  0.05779853    -0.09100
C687        C  0.97275477  0.85350413  0.07269064    -0.16800
C688        C  0.96000634  0.81541897  0.06963062     0.25400
C689        C  0.95019309  0.79990566  0.05171586    -0.18400
C690        C  0.95394916  0.82239722  0.03685995    -0.07400
C691        C  0.95858379  0.79227696  0.08453034    -0.13800
C692        C  0.95796508  0.77075806  0.09566008    -0.13500
C693        C  0.95761046  0.74297782  0.10737072     0.25300
C694        C  0.93197937  0.70480341  0.10349614    -0.18900
C695        C  0.93292821  0.67750395  0.11401879    -0.07400
C696        C  0.95969405  0.68799297  0.12854823    -0.03500
C697        C  0.98512862  0.72644336  0.13248509    -0.08800
C698        C  0.98404944  0.75375384  0.12196072    -0.16400
H699        H  0.98698806  0.90565731  0.06040369     0.11700
H700        H  0.98052824  0.86584063  0.08650776     0.11000
H701        H  0.94030739  0.77049542  0.04916873     0.10900
H702        H  0.94670564  0.80968173  0.02311490     0.11500
H703        H  0.91161847  0.69610838  0.09213903     0.11500
H704        H  0.91328246  0.64814822  0.11052237     0.11500
H705        H  0.00574976  0.73534654  0.14372316     0.11600
H706        H  0.00411005  0.78321579  0.12505489     0.10400
C707        C  0.03419593  0.63743596  0.15841771    -0.03400
C708        C  0.06573307  0.67172979  0.16477052    -0.09100
C709        C  0.09906992  0.67353236  0.17061143    -0.16800
C710        C  0.10134612  0.64116605  0.17008985     0.25400
C711        C  0.07057356  0.60727486  0.16320716    -0.18400
C712        C  0.03731165  0.60541016  0.15737632    -0.07400
C713        C  0.13409924  0.64188297  0.17767471    -0.13800
C714        C  0.15972610  0.64052905  0.18497849    -0.13500
C715        C  0.18854586  0.63743642  0.19470744     0.25300
C716        C  0.19191849  0.60603564  0.19165095    -0.18900
C717        C  0.21858681  0.60211111  0.20181853    -0.07400
C718        C  0.24172041  0.62930246  0.21529655    -0.03500
C719        C  0.23873935  0.66106214  0.21807399    -0.08800
C720        C  0.21222985  0.66505946  0.20785098    -0.16400
H721        H  0.06414681  0.69679412  0.16586588     0.11700
H722        H  0.12267474  0.69991475  0.17597493     0.11000
H723        H  0.07198861  0.58205489  0.16270726     0.10900
H724        H  0.01381463  0.57874578  0.15224095     0.11500
H725        H  0.17360647  0.58437144  0.18159810     0.11500
H726        H  0.22049842  0.57741960  0.19953970     0.11500
H727        H  0.25665091  0.68250162  0.22829975     0.11600
H728        H  0.20985397  0.68941978  0.21037115     0.10400
C729        C  0.04413701  0.65642973  0.31081462    -0.03400
C730        C  0.07445909  0.66605283  0.32325242    -0.09100
C731        C  0.10664328  0.66598442  0.31737706    -0.16800
C732        C  0.10902100  0.65652141  0.29898761     0.25400
C733        C  0.07955852  0.64822358  0.28642664    -0.18400
C734        C  0.04746427  0.64823815  0.29225200    -0.07400
C735        C  0.14061956  0.65362068  0.29293629    -0.13800
C736        C  0.16474620  0.64894059  0.28647091    -0.13500
C737        C  0.19090849  0.64133848  0.27717901     0.25300
C738        C  0.17724536  0.61278207  0.26353388    -0.18900
C739        C  0.20234035  0.60633830  0.25371607    -0.07400
C740        C  0.24155499  0.62859714  0.25729843    -0.03500
C741        C  0.25508343  0.65639340  0.27140671    -0.08800
C742        C  0.22990151  0.66286868  0.28123459    -0.16400
H743        H  0.07266620  0.67220193  0.33765475     0.11700
H744        H  0.12922235  0.67245899  0.32725818     0.11000
H745        H  0.08106310  0.64101735  0.27215163     0.10900
H746        H  0.02494212  0.64130692  0.28226089     0.11500
H747        H  0.14718079  0.59581063  0.26029242     0.11500
H748        H  0.19120231  0.58434266  0.24311197     0.11500
H749        H  0.28520496  0.67386691  0.27439222     0.11600
H750        H  0.24088406  0.68502910  0.29175609     0.10400
C751        C  0.37023663  0.67602208  0.21576987    -0.03400
C752        C  0.40629425  0.68246199  0.22046489    -0.09100
C753        C  0.43806818  0.70780385  0.21058899    -0.16800
C754        C  0.43415046  0.72650309  0.19566014     0.25400
C755        C  0.39807663  0.71898011  0.19040276    -0.18400
C756        C  0.36625599  0.69375067  0.20035477    -0.07400
C757        C  0.46726731  0.75468553  0.18633617    -0.13800
C758        C  0.49489576  0.77991597  0.17918956    -0.13500
C759        C  0.52736218  0.81203050  0.17140661     0.25300
C760        C  0.52336892  0.84020086  0.16347440    -0.18900
C761        C  0.55509986  0.87277323  0.15715105    -0.07400
C762        C  0.59129373  0.87753268  0.15857358    -0.03500
C763        C  0.59499968  0.84867516  0.16602944    -0.08800
C764        C  0.56322224  0.81619552  0.17251434    -0.16400
H765        H  0.40995218  0.66824864  0.23194287     0.11700
H766        H  0.46573763  0.71318754  0.21475842     0.11000
H767        H  0.39465235  0.73320131  0.17884825     0.10900
H768        H  0.33873256  0.68895322  0.19636869     0.11500
H769        H  0.49581443  0.83733132  0.16251947     0.11500
H770        H  0.55147890  0.89448792  0.15132362     0.11500
H771        H  0.62263049  0.85185176  0.16740412     0.11600
H772        H  0.56673412  0.79469766  0.17870348     0.10400
C773        C  0.58631950  0.88611653  0.32112904    -0.03400
C774        C  0.55057284  0.88255534  0.32080222    -0.09100
C775        C  0.51879759  0.84992244  0.31362739    -0.16800
C776        C  0.52224938  0.82036176  0.30672091     0.25400
C777        C  0.55753200  0.82325344  0.30734926    -0.18400
C778        C  0.58941556  0.85591883  0.31457769    -0.07400
C779        C  0.48989008  0.78803849  0.29815742    -0.13800
C780        C  0.46256401  0.76270047  0.29014804    -0.13500
C781        C  0.43017672  0.73462849  0.27955795     0.25300
C782        C  0.41339277  0.69648373  0.28345698    -0.18900
C783        C  0.38252256  0.66940546  0.27271915    -0.07400
C784        C  0.36846060  0.68030460  0.25792626    -0.03500
C785        C  0.38483918  0.71865503  0.25438899    -0.08800
C786        C  0.41565454  0.74563845  0.26509198    -0.16400
H787        H  0.54730425  0.90522901  0.32592226     0.11700
H788        H  0.49165181  0.84801477  0.31317479     0.11000
H789        H  0.56054083  0.80061049  0.30191459     0.10900
H790        H  0.61666803  0.85809767  0.31445782     0.11500
H791        H  0.42437145  0.68768376  0.29465133     0.11500
H792        H  0.37018963  0.63995226  0.27566626     0.11500
H793        H  0.37394086  0.72765596  0.24325112     0.11600
H794        H  0.42830091  0.77508332  0.26201916     0.10400
C795        C  0.29383240  0.34553737  0.31434909    -0.03400
C796        C  0.25882790  0.34215197  0.31019828    -0.09100
C797        C  0.25754395  0.37257374  0.30320537    -0.16800
C798        C  0.29117326  0.40674102  0.30033461     0.25400
C799        C  0.32604117  0.41051676  0.30470385    -0.18400
C800        C  0.32739661  0.38020378  0.31168322    -0.07400
C801        C  0.29022257  0.43769647  0.29241318    -0.13800
C802        C  0.29097314  0.46396561  0.28523625    -0.13500
C803        C  0.29327170  0.49532061  0.27593112     0.25300
C804        C  0.31901836  0.51223744  0.26171720    -0.18900
C805        C  0.32060727  0.54185493  0.25220271    -0.07400
C806        C  0.29586928  0.55439258  0.25652712    -0.03500
C807        C  0.27108494  0.53830022  0.27123554    -0.08800
C808        C  0.26968143  0.50875731  0.28085506    -0.16400
H809        H  0.23251734  0.31574348  0.31192398     0.11700
H810        H  0.23038421  0.36929300  0.29981202     0.11000
H811        H  0.35224299  0.43683958  0.30257326     0.10900
H812        H  0.35474200  0.38390454  0.31502088     0.11500
H813        H  0.33765032  0.50233377  0.25788589     0.11500
H814        H  0.34071157  0.55457755  0.24124039     0.11500
H815        H  0.25209456  0.54784882  0.27489769     0.11600
H816        H  0.24985050  0.49605111  0.29192968     0.10400
C817        C  0.90265144  0.58216620  0.31062349    -0.03400
C818        C  0.87410342  0.55985057  0.32307591    -0.09100
C819        C  0.84182328  0.52607128  0.31702567    -0.16800
C820        C  0.83757615  0.51430874  0.29845204     0.25400
C821        C  0.86533548  0.53691985  0.28590174    -0.18400
C822        C  0.89757992  0.57054543  0.29191387    -0.07400
C823        C  0.80557779  0.47859022  0.29221636    -0.13800
C824        C  0.78024336  0.44878363  0.28599385    -0.13500
C825        C  0.75142698  0.41367758  0.27742962     0.25300
C826        C  0.76187788  0.39370467  0.26569684    -0.18900
C827        C  0.73410140  0.36080406  0.25651531    -0.07400
C828        C  0.69552519  0.34749685  0.25895223    -0.03500
C829        C  0.68514359  0.36710730  0.27101211    -0.08800
C830        C  0.71296197  0.40010140  0.28017866    -0.16400
H831        H  0.87737886  0.56783731  0.33758643     0.11700
H832        H  0.82057454  0.50881083  0.32689054     0.11000
H833        H  0.86236240  0.52824722  0.27148963     0.10900
H834        H  0.91883611  0.58730837  0.28195528     0.11500
H835        H  0.79149784  0.40390841  0.26340115     0.11500
H836        H  0.74264143  0.34604793  0.24723592     0.11500
H837        H  0.65565182  0.35780122  0.27275763     0.11600
H838        H  0.70448055  0.41540497  0.28910573     0.10400
C839        C  0.69052602  0.34506552  0.21725738    -0.03400
C840        C  0.69433514  0.38022750  0.22030342    -0.09100
C841        C  0.71989100  0.41109742  0.21013079    -0.16800
C842        C  0.74167585  0.40710002  0.19669316     0.25400
C843        C  0.73714874  0.37181383  0.19318479    -0.18400
C844        C  0.71146557  0.34082770  0.20335490    -0.07400
C845        C  0.77005788  0.43968204  0.18731490    -0.13800
C846        C  0.79540146  0.46782999  0.18070193    -0.13500
C847        C  0.82778658  0.50176197  0.17430318     0.25300
C848        C  0.85882543  0.52297876  0.18632919    -0.18900
C849        C  0.89124793  0.55493245  0.18013790    -0.07400
C850        C  0.89307345  0.56623585  0.16181259    -0.03500
C851        C  0.86142779  0.54536284  0.14989714    -0.08800
C852        C  0.82897611  0.51317270  0.15610933    -0.16400
H853        H  0.67784964  0.38385663  0.23072185     0.11700
H854        H  0.72312113  0.43821745  0.21296236     0.11000
H855        H  0.75395716  0.36842551  0.18285675     0.10900
H856        H  0.70877905  0.31387150  0.20078806     0.11500
H857        H  0.85815364  0.51454564  0.20045811     0.11500
H858        H  0.91500480  0.57082323  0.18966957     0.11500
H859        H  0.86220502  0.55339633  0.13569197     0.11600
H860        H  0.80509298  0.49694809  0.14668220     0.10400
C861        C  0.56473833  0.26224195  0.25920580    -0.03400
C862        C  0.52772179  0.23378137  0.25379249    -0.09100
C863        C  0.49629656  0.23012237  0.26285703    -0.16800
C864        C  0.50139344  0.25442346  0.27767013     0.25400
C865        C  0.53818254  0.28132694  0.28383471    -0.18400
C866        C  0.56963911  0.28502003  0.27475358    -0.07400
C867        C  0.46910886  0.25326995  0.28586845    -0.13800
C868        C  0.44299460  0.25465619  0.29230691    -0.13500
C869        C  0.41331691  0.25924876  0.29973688     0.25300
C870        C  0.42148678  0.29505393  0.30531181    -0.18900
C871        C  0.39295886  0.30013320  0.31217132    -0.07400
C872        C  0.35568673  0.26943315  0.31360394    -0.03500
C873        C  0.34769062  0.23342074  0.30815175    -0.08800
C874        C  0.37632214  0.22840668  0.30120080    -0.16400
H875        H  0.52307339  0.21499724  0.24221184     0.11700
H876        H  0.46804911  0.20894848  0.25802313     0.11000
H877        H  0.54256467  0.30016291  0.29535832     0.10900
H878        H  0.59765375  0.30664414  0.27946448     0.11500
H879        H  0.44995451  0.31914591  0.30429354     0.11500
H880        H  0.40009461  0.32810732  0.31647258     0.11500
H881        H  0.31919239  0.20931729  0.30893040     0.11600
H882        H  0.36955877  0.20055871  0.29687062     0.10400
C883        C  0.64785775  0.22213416  0.26007035    -0.03400
C884        C  0.62446688  0.18309254  0.25751901    -0.09100
C885        C  0.63070285  0.15901458  0.26801978    -0.16800
C886        C  0.66026696  0.17369141  0.28121248     0.25400
C887        C  0.68336793  0.21263854  0.28404590    -0.18400
C888        C  0.67701907  0.23682115  0.27356481    -0.07400
C889        C  0.66668441  0.14831725  0.29152819    -0.13800
C890        C  0.66901872  0.12386813  0.29884767    -0.13500
C891        C  0.66822332  0.09143918  0.30582846     0.25300
C892        C  0.67431564  0.08890047  0.32466335    -0.18900
C893        C  0.67150419  0.05626226  0.33134000    -0.07400
C894        C  0.66218849  0.02582101  0.31922977    -0.03500
C895        C  0.65649438  0.02880515  0.30033934    -0.08800
C896        C  0.65957400  0.06144971  0.29368879    -0.16400
H897        H  0.60153576  0.17131372  0.24732612     0.11700
H898        H  0.61260934  0.12892364  0.26576884     0.11000
H899        H  0.70633848  0.22425081  0.29421798     0.10900
H900        H  0.69530831  0.26692058  0.27566609     0.11500
H901        H  0.68074351  0.11187801  0.33418399     0.11500
H902        H  0.67569890  0.05440327  0.34597875     0.11500
H903        H  0.64963683  0.00582696  0.29073727     0.11600
H904        H  0.65472739  0.06312078  0.27909741     0.10400
C905        C  0.66587012  0.01741908  0.16216515    -0.03400
C906        C  0.67053556  0.04531306  0.14996222    -0.09100
C907        C  0.67054249  0.07710618  0.15656165    -0.16800
C908        C  0.66636195  0.08154482  0.17544608     0.25400
C909        C  0.66278486  0.05432811  0.18770922    -0.18400
C910        C  0.66238962  0.02242294  0.18112086    -0.07400
C911        C  0.66462094  0.11329026  0.18232859    -0.13800
C912        C  0.66208450  0.13856389  0.18907944    -0.13500
C913        C  0.65812776  0.16728266  0.19827007     0.25300
C914        C  0.68568332  0.19199619  0.21122507    -0.18900
C915        C  0.68065817  0.21816037  0.22109124    -0.07400
C916        C  0.64793205  0.21983018  0.21814643    -0.03500
C917        C  0.62091414  0.19572656  0.20479644    -0.08800
C918        C  0.62587345  0.16944949  0.19497750    -0.16400
H919        H  0.67287722  0.04185469  0.13528030     0.11700
H920        H  0.67321855  0.09789067  0.14691786     0.11000
H921        H  0.65963299  0.05744843  0.20234463     0.10900
H922        H  0.65891898  0.00137269  0.19079113     0.11500
H923        H  0.71075134  0.19063202  0.21391648     0.11500
H924        H  0.70206535  0.23681568  0.23118184     0.11500
H925        H  0.59544434  0.19641921  0.20239597     0.11600
H926        H  0.60424714  0.15039494  0.18506646     0.10400
C927        C  0.25543629  0.23482018  0.11165531    -0.03400
C928        C  0.24534169  0.24619600  0.09552749    -0.09100
C929        C  0.21887730  0.21946832  0.08287712    -0.16800
C930        C  0.20222374  0.18112984  0.08621123     0.25400
C931        C  0.21248693  0.16956781  0.10209012    -0.18400
C932        C  0.23898929  0.19622609  0.11472794    -0.07400
C933        C  0.17375663  0.15363648  0.07365236    -0.13800
C934        C  0.14902293  0.13064874  0.06344927    -0.13500
C935        C  0.11858405  0.10381523  0.05148392     0.25300
C936        C  0.10541464  0.06546134  0.05254030    -0.18900
C937        C  0.07503360  0.03938478  0.04122813    -0.07400
C938        C  0.05740430  0.05142917  0.02874601    -0.03500
C939        C  0.07118411  0.09013732  0.02771517    -0.08800
C940        C  0.10152015  0.11608125  0.03901002    -0.16400
H941        H  0.25794278  0.27573271  0.09271567     0.11700
H942        H  0.21114647  0.22869056  0.07060022     0.11000
H943        H  0.19963400  0.13995462  0.10482358     0.10900
H944        H  0.24594215  0.18667977  0.12712398     0.11500
H945        H  0.11843454  0.05569823  0.06219293     0.11500
H946        H  0.06517346  0.00983864  0.04237785     0.11500
H947        H  0.05840505  0.10044758  0.01825218     0.11600
H948        H  0.11148816  0.14571180  0.03810485     0.10400
C949        C  0.36656043  0.28080262  0.15534559    -0.03400
C950        C  0.37642371  0.28913631  0.17422437    -0.09100
C951        C  0.40616281  0.28659960  0.18183669    -0.16800
C952        C  0.42628647  0.27550961  0.17073871     0.25400
C953        C  0.41650158  0.26678556  0.15200828    -0.18400
C954        C  0.38684967  0.26943476  0.14434026    -0.07400
C955        C  0.45704722  0.27329531  0.17864285    -0.13800
C956        C  0.48256675  0.27214906  0.18610488    -0.13500
C957        C  0.51243340  0.27191037  0.19627807     0.25300
C958        C  0.52313621  0.24599112  0.19173811    -0.18900
C959        C  0.55124734  0.24512407  0.20225544    -0.07400
C960        C  0.56842209  0.26986327  0.21748210    -0.03500
C961        C  0.55822246  0.29640823  0.22162966    -0.08800
C962        C  0.53024040  0.29727535  0.21114529    -0.16400
H963        H  0.36101447  0.29738834  0.18313964     0.11700
H964        H  0.41346893  0.29329717  0.19637968     0.11000
H965        H  0.43197805  0.25824148  0.14330231     0.10900
H966        H  0.38033129  0.26334225  0.12972142     0.11500
H967        H  0.50953871  0.22629271  0.18021639     0.11500
H968        H  0.55900346  0.22474697  0.19874462     0.11500
H969        H  0.57183703  0.31635160  0.23305779     0.11600
H970        H  0.52230362  0.31755656  0.21471350     0.10400
C971        C  0.29059464  0.55217769  0.21441645    -0.03400
C972        C  0.26296346  0.51457199  0.21776249    -0.09100
C973        C  0.26160601  0.48543389  0.20727244    -0.16800
C974        C  0.28743614  0.49362227  0.19315116     0.25400
C975        C  0.31432250  0.53105540  0.18942419    -0.18400
C976        C  0.31582853  0.56019673  0.19996113    -0.07400
C977        C  0.28718435  0.46371685  0.18282817    -0.13800
C978        C  0.28852124  0.43912696  0.17455992    -0.13500
C979        C  0.29205546  0.41018104  0.16549378     0.25300
C980        C  0.32804156  0.41598268  0.16249252    -0.18900
C981        C  0.33182351  0.38708802  0.15498259    -0.07400
C982        C  0.29960095  0.35175673  0.15052110    -0.03500
C983        C  0.26348231  0.34660540  0.15299627    -0.08800
C984        C  0.25977531  0.37567061  0.16043989    -0.16400
H985        H  0.24287320  0.50778041  0.22867536     0.11700
H986        H  0.24068618  0.45656863  0.21028343     0.11000
H987        H  0.33450153  0.53769452  0.17856093     0.10900
H988        H  0.33743373  0.58895250  0.19718893     0.11500
H989        H  0.35322375  0.44265493  0.16626463     0.11500
H990        H  0.36001681  0.39228895  0.15286981     0.11500
H991        H  0.23810126  0.31971339  0.14985786     0.11600
H992        H  0.23176739  0.37089922  0.16269972     0.10400
loop_ 
_geom_bond_atom_site_label_1 
_geom_bond_atom_site_label_2 
_geom_bond_distance 
_geom_bond_site_symmetry_2 
_ccdc_geom_bond_type 
C1            C2   1.404       .  A
C1            C6   1.405       .  A
C1          C927   1.482       .  S
C2            C3   1.404       .  A
C2            H7   1.083       .  S
C3            C4   1.404       .  A
C3          C949   1.485       .  S
C4            C5   1.405       .  A
C4            H8   1.082       .  S
C5            C6   1.405       .  A
C5          C982   1.487       .  S
C6            H9   1.083       .  S
C10          H11   1.111       .  S
C10          C16   1.536       .  S
C10          C15   1.538       .  S
C10          C14   1.541       .  S
C12          H13   1.111       .  S
C12          C18   1.534       .  S
C12          C17   1.534       .  S
C12          C19   1.534       .  S
C14          C17   1.378       .  D
C14         C861   1.495       .  S
C15          C18   1.374       .  D
C15         C828   1.483       .  S
C16          C19   1.375       .  D
C16         C883   1.477       .  S
C17         C960   1.479       .  S
C18         C839   1.481       .  S
C19         C916   1.485       .  S
C20          H21   1.111       .  S
C20          C26   1.536       .  S
C20          C25   1.539       .  S
C20          C24   1.536       .  S
C22          H23   1.111       .  S
C22          C28   1.534       .  S
C22          C27   1.537       .  S
C22          C29   1.536       .  S
C24          C27   1.377       .  D
C24         C784   1.481       .  S
C25          C28   1.377       .  D
C25         C806   1.484       .  S
C26          C29   1.375       .  D
C26         C740   1.488       .  S
C27         C751   1.489       .  S
C28         C971   1.484       .  S
C29         C718   1.481       .  S
C30          C31   1.407       .  A
C30          C35   1.409       .  A
C30         C696   1.486       .  S
C31          C32   1.402       .  A
C31          H36   1.084       .  S
C32          C33   1.403       .  A
C32         C850   1.483       .  S
C33          C34   1.404       .  A
C33          H37   1.083       .  S
C34          C35   1.407       .  A
C34         C707   1.488   1_655  S
C35          H38   1.083   1_655  S
C39          C40   1.410       .  A
C39          C44   1.412       .  A
C39         C674   1.494       .  S
C40          C41   1.405       .  A
C40          H45   1.083       .  S
C41          C42   1.402       .  A
C41         C762   1.483       .  S
C42          C43   1.401       .  A
C42          H46   1.084       .  S
C43          C44   1.405       .  A
C43         C905   1.483   1_565  S
C44          H47   1.083   1_565  S
C48          C49   1.410       .  A
C48          C53   1.411   1_655  A
C48         C641   1.493       .  S
C49          C50   1.407       .  A
C49          H54   1.083       .  S
C50          C51   1.404       .  A
C50         C817   1.489       .  S
C51          C52   1.404   1_655  A
C51          H55   1.083       .  S
C52          C53   1.406       .  A
C52         C729   1.491       .  S
C53          H56   1.083       .  S
C57          C58   1.407       .  A
C57          C62   1.404       .  A
C57         C630   1.479       .  S
C58          C59   1.406       .  A
C58          H63   1.084       .  S
C59          C60   1.403       .  A
C59         C773   1.483       .  S
C60          C61   1.401       .  A
C60          H64   1.084       .  S
C61          C62   1.400       .  A
C61         C894   1.477   1_565  S
C62          H65   1.084   1_565  S
C66          C67   1.406       .  A
C66          C71   1.409       .  A
C66         C608   1.488       .  S
C67          C68   1.404       .  A
C67          H72   1.083       .  S
C68          C69   1.405       .  A
C68         C795   1.487       .  S
C69          C70   1.404       .  A
C69          H73   1.083       .  S
C70          C71   1.405       .  A
C70         C872   1.488       .  S
C71          H74   1.083       .  S
O75         Ni81   1.925       .  S
O75          C96   1.271       .  A
O76         Ni99   1.905       .  S
O76          C85   1.268       .  A
O77         Ni81   1.903       .  S
O77         Ni99   1.899   1_455  S
O77         Ni93   1.907   1_455  S
O77         H100   0.966       .  S
C78         C542   1.484       .  S
C78          O95   1.276       .  A
C78          O87   1.278       .  A
O79         Ni98   1.932       .  S
O79          C85   1.272       .  A
O80         Ni98   1.903       .  S
O80          C82   1.269       .  A
Ni81         O84   1.920   1_565  S
Ni81         O86   1.910       .  S
C82         C553   1.491   1_565  S
C82          O92   1.277       .  A
O83         Ni99   1.924   1_445  S
O83          C89   1.279       .  A
O84          C89   1.278       .  A
C85         C619   1.480       .  S
O86          C88   1.269       .  A
O87         Ni98   1.926       .  S
C88         C652   1.492   1_455  S
C88          O94   1.273   1_455  A
C89         C597   1.484       .  S
H90          O91   0.965       .  S
O91         Ni99   1.915       .  S
O91         Ni93   1.907       .  S
O91         Ni98   1.906       .  S
O92         Ni93   1.942       .  S
Ni93         O97   1.912   1_655  S
Ni93         O95   1.916       .  S
O94         Ni99   1.934       .  S
C96         C586   1.481       .  S
C96          O97   1.270       .  A
O101       Ni107   1.930   1_654  S
O101        C122   1.272       .  A
O102       Ni125   1.906   1_655  S
O102        C111   1.266   1_565  A
O103       Ni107   1.908       .  S
O103       Ni125   1.907       .  S
O103       Ni119   1.913   1_456  S
O103        H126   0.965       .  S
C104        C663   1.485       .  S
C104        O121   1.278       .  A
C104        O113   1.277       .  A
O105       Ni124   1.926   1_455  S
O105        C111   1.270   1_455  A
O106       Ni124   1.906   1_454  S
O106        C108   1.269       .  A
Ni107       O110   1.924       .  S
Ni107       O112   1.905   1_455  S
C108        C938   1.483       .  S
C108        O118   1.272   1_545  A
O109       Ni125   1.920       .  S
O109        C115   1.277       .  A
O110        C115   1.277       .  A
C111        C509   1.479   1_655  S
O112        C114   1.268       .  A
O113       Ni124   1.924   1_564  S
C114        C465   1.481       .  S
C114        O120   1.270       .  A
C115        C487   1.485       .  S
H116        O117   0.967       .  S
O117       Ni125   1.916   1_655  S
O117       Ni119   1.907   1_556  S
O117       Ni124   1.909   1_565  S
O118       Ni119   1.925   1_455  S
Ni119       O123   1.910       .  S
Ni119       O121   1.925       .  S
O120       Ni125   1.922   1_655  S
C122        C685   1.482       .  S
C122        O123   1.269       .  A
C127        C128   1.410       .  A
C127        C132   1.411   1_655  A
C127        C564   1.492       .  S
C128        C129   1.404       .  A
C128        H133   1.083       .  S
C129        C130   1.401       .  A
C129        C432   1.483       .  S
C130        C131   1.402   1_655  A
C130        H134   1.084       .  S
C131        C132   1.407       .  A
C131        C443   1.485       .  S
C132        H135   1.083       .  S
C136        C137   1.405       .  A
C136        C141   1.406   1_655  A
C136        C520   1.481       .  S
C137        C138   1.403       .  A
C137        H142   1.084       .  S
C138        C139   1.404       .  A
C138        C388   1.484       .  S
C139        C140   1.405   1_655  A
C139        H143   1.084       .  S
C140        C141   1.404       .  A
C140        C399   1.485       .  S
C141        H144   1.084       .  S
C145        H146   1.111       .  S
C145        C151   1.536       .  S
C145        C150   1.540       .  S
C145        C149   1.533       .  S
C147        H148   1.111       .  S
C147        C153   1.534       .  S
C147        C152   1.537       .  S
C147        C154   1.536       .  S
C149        C152   1.375       .  D
C149        C421   1.478       .  S
C150        C153   1.377       .  D
C150        C300   1.491       .  S
C151        C154   1.375       .  D
C151        C333   1.480       .  S
C152        C377   1.485       .  S
C153        C311   1.480       .  S
C154        C355   1.484       .  S
C155        H156   1.111       .  S
C155        C161   1.537       .  S
C155        C160   1.537       .  S
C155        C159   1.537       .  S
C157        H158   1.111       .  S
C157        C163   1.537       .  S
C157        C162   1.533       .  S
C157        C164   1.537       .  S
C159        C162   1.370       .  D
C159        C278   1.476       .  S
C160        C163   1.378       .  D
C160        C454   1.489       .  S
C161        C164   1.377       .  D
C161        C223   1.488       .  S
C162        C256   1.485       .  S
C163        C410   1.479       .  S
C164        C201   1.479       .  S
C165        C166   1.406       .  A
C165        C170   1.407       .  A
C165        C575   1.483       .  S
C166        C167   1.401       .  A
C166        H171   1.084       .  S
C167        C168   1.400       .  A
C167        C267   1.478       .  S
C168        C169   1.402       .  A
C168        H172   1.084       .  S
C169        C170   1.405       .  A
C169        C344   1.482   1_565  S
C170        H173   1.083   1_565  S
C174        C175   1.405       .  A
C174        C179   1.407       .  A
C174        C531   1.486       .  S
C175        C176   1.406       .  A
C175        H180   1.083       .  S
C176        C177   1.406       .  A
C176        C289   1.487       .  S
C177        C178   1.406       .  A
C177        H181   1.083       .  S
C178        C179   1.405       .  A
C178        C234   1.490       .  S
C179        H182   1.083       .  S
C183        C184   1.405       .  A
C183        C188   1.407       .  A
C183        C476   1.483       .  S
C184        C185   1.402       .  A
C184        H189   1.084       .  S
C185        C186   1.403       .  A
C185        C212   1.480       .  S
C186        C187   1.403       .  A
C186        H190   1.084       .  S
C187        C188   1.404       .  A
C187        C322   1.484       .  S
C188        H191   1.083       .  S
C192        C193   1.408       .  A
C192        C197   1.410       .  A
C192        C498   1.491       .  S
C193        C194   1.403       .  A
C193        H198   1.083   1_565  S
C194        C195   1.403       .  A
C194        C366   1.481   1_565  S
C195        C196   1.403       .  A
C195        H199   1.084       .  S
C196        C197   1.405       .  A
C196        C245   1.486       .  S
C197        H200   1.083       .  S
C201        C202   1.404       .  A
C201        C206   1.403       .  A
C202        C203   1.395       .  A
C202        H215   1.083       .  S
C203        C204   1.399       .  A
C203        H216   1.084       .  S
C204        C205   1.399       .  A
C204        C207   1.436       .  S
C205        C206   1.398       .  A
C205        H217   1.083       .  S
C206        H218   1.080       .  S
C207        C208   1.204       .  T
C208        C209   1.436       .  S
C209        C210   1.400       .  A
C209        C214   1.399       .  A
C210        C211   1.399       .  A
C210        H219   1.083       .  S
C211        C212   1.407       .  A
C211        H220   1.083       .  S
C212        C213   1.405       .  A
C213        C214   1.396       .  A
C213        H221   1.083       .  S
C214        H222   1.084       .  S
C223        C224   1.406       .  A
C223        C228   1.404       .  A
C224        C225   1.401       .  A
C224        H237   1.083       .  S
C225        C226   1.402       .  A
C225        H238   1.083       .  S
C226        C227   1.401       .  A
C226        C229   1.445       .  S
C227        C228   1.401       .  A
C227        H239   1.083       .  S
C228        H240   1.083       .  S
C229        C230   1.209       .  T
C230        C231   1.445       .  S
C231        C232   1.400       .  A
C231        C236   1.401       .  A
C232        C233   1.399       .  A
C232        H241   1.083       .  S
C233        C234   1.408       .  A
C233        H242   1.083       .  S
C234        C235   1.408       .  A
C235        C236   1.401       .  A
C235        H243   1.083       .  S
C236        H244   1.083       .  S
C245        C246   1.407       .  A
C245        C250   1.407       .  A
C246        C247   1.401       .  A
C246        H259   1.083       .  S
C247        C248   1.401       .  A
C247        H260   1.083       .  S
C248        C249   1.400       .  A
C248        C251   1.444       .  S
C249        C250   1.399       .  A
C249        H261   1.084       .  S
C250        H262   1.083       .  S
C251        C252   1.209       .  T
C252        C253   1.444       .  S
C253        C254   1.402       .  A
C253        C258   1.400       .  A
C254        C255   1.401       .  A
C254        H263   1.083       .  S
C255        C256   1.402       .  A
C255        H264   1.080       .  S
C256        C257   1.406       .  A
C257        C258   1.399       .  A
C257        H265   1.083       .  S
C258        H266   1.083       .  S
C267        C268   1.406       .  A
C267        C272   1.406       .  A
C268        C269   1.395       .  A
C268        H281   1.083       .  S
C269        C270   1.398       .  A
C269        H282   1.084       .  S
C270        C271   1.400       .  A
C270        C273   1.435       .  S
C271        C272   1.398       .  A
C271        H283   1.083       .  S
C272        H284   1.083       .  S
C273        C274   1.203       .  T
C274        C275   1.435       .  S
C275        C276   1.399       .  A
C275        C280   1.400       .  A
C276        C277   1.397       .  A
C276        H285   1.083       .  S
C277        C278   1.401       .  A
C277        H286   1.079       .  S
C278        C279   1.403       .  A
C279        C280   1.396       .  A
C279        H287   1.083       .  S
C280        H288   1.084       .  S
C289        C290   1.408       .  A
C289        C294   1.408       .  A
C290        C291   1.399       .  A
C290        H303   1.083       .  S
C291        C292   1.400       .  A
C291        H304   1.083       .  S
C292        C293   1.399       .  A
C292        C295   1.440       .  S
C293        C294   1.398       .  A
C293        H305   1.084       .  S
C294        H306   1.083       .  S
C295        C296   1.206       .  T
C296        C297   1.440       .  S
C297        C298   1.400       .  A
C297        C302   1.398       .  A
C298        C299   1.399       .  A
C298        H307   1.083       .  S
C299        C300   1.408       .  A
C299        H308   1.082       .  S
C300        C301   1.404       .  A
C301        C302   1.397       .  A
C301        H309   1.076       .  S
C302        H310   1.084       .  S
C311        C312   1.403       .  A
C311        C316   1.403       .  A
C312        C313   1.401       .  A
C312        H325   1.082       .  S
C313        C314   1.402       .  A
C313        H326   1.083       .  S
C314        C315   1.401       .  A
C314        C317   1.443       .  S
C315        C316   1.397       .  A
C315        H327   1.083       .  S
C316        H328   1.083       .  S
C317        C318   1.208       .  T
C318        C319   1.442       .  S
C319        C320   1.400       .  A
C319        C324   1.401       .  A
C320        C321   1.398       .  A
C320        H329   1.084       .  S
C321        C322   1.406       .  A
C321        H330   1.083       .  S
C322        C323   1.406       .  A
C323        C324   1.401       .  A
C323        H331   1.083       .  S
C324        H332   1.083       .  S
C333        C334   1.402       .  A
C333        C338   1.404       .  A
C334        C335   1.397       .  A
C334        H347   1.077       .  S
C335        C336   1.399       .  A
C335        H348   1.083       .  S
C336        C337   1.400       .  A
C336        C339   1.436       .  S
C337        C338   1.397       .  A
C337        H349   1.083       .  S
C338        H350   1.083       .  S
C339        C340   1.204       .  T
C340        C341   1.436       .  S
C341        C342   1.397       .  A
C341        C346   1.400       .  A
C342        C343   1.395       .  A
C342        H351   1.084       .  S
C343        C344   1.407       .  A
C343        H352   1.083   1_545  S
C344        C345   1.406       .  A
C345        C346   1.399       .  A
C345        H353   1.083       .  S
C346        H354   1.083       .  S
C355        C356   1.404       .  A
C355        C360   1.406       .  A
C356        C357   1.399       .  A
C356        H369   1.083       .  S
C357        C358   1.401       .  A
C357        H370   1.083       .  S
C358        C359   1.400       .  A
C358        C361   1.439       .  S
C359        C360   1.397       .  A
C359        H371   1.084       .  S
C360        H372   1.083       .  S
C361        C362   1.206       .  T
C362        C363   1.440       .  S
C363        C364   1.399       .  A
C363        C368   1.401       .  A
C364        C365   1.396       .  A
C364        H373   1.084       .  S
C365        C366   1.405       .  A
C365        H374   1.083       .  S
C366        C367   1.407       .  A
C367        C368   1.401       .  A
C367        H375   1.083       .  S
C368        H376   1.083       .  S
C377        C378   1.407       .  A
C377        C382   1.403       .  A
C378        C379   1.398       .  A
C378        H391   1.083       .  S
C379        C380   1.399       .  A
C379        H392   1.084       .  S
C380        C381   1.401       .  A
C380        C383   1.440       .  S
C381        C382   1.399       .  A
C381        H393   1.083       .  S
C382        H394   1.082       .  S
C383        C384   1.206       .  T
C384        C385   1.440       .  S
C385        C386   1.400       .  A
C385        C390   1.400       .  A
C386        C387   1.400       .  A
C386        H395   1.083       .  S
C387        C388   1.407       .  A
C387        H396   1.083       .  S
C388        C389   1.406       .  A
C389        C390   1.397       .  A
C389        H397   1.083       .  S
C390        H398   1.084       .  S
C399        C400   1.408       .  A
C399        C404   1.406       .  A
C400        C401   1.402       .  A
C400        H413   1.083       .  S
C401        C402   1.402       .  A
C401        H414   1.083       .  S
C402        C403   1.399       .  A
C402        C405   1.441       .  S
C403        C404   1.395       .  A
C403        H415   1.084       .  S
C404        H416   1.083       .  S
C405        C406   1.207       .  T
C406        C407   1.441       .  S
C407        C408   1.401       .  A
C407        C412   1.402       .  A
C408        C409   1.396       .  A
C408        H417   1.084       .  S
C409        C410   1.403       .  A
C409        H418   1.083       .  S
C410        C411   1.404       .  A
C411        C412   1.401       .  A
C411        H419   1.083       .  S
C412        H420   1.083       .  S
C421        C422   1.402       .  A
C421        C426   1.404       .  A
C422        C423   1.396       .  A
C422        H435   1.083       .  S
C423        C424   1.400       .  A
C423        H436   1.084       .  S
C424        C425   1.402       .  A
C424        C427   1.440       .  S
C425        C426   1.401       .  A
C425        H437   1.083       .  S
C426        H438   1.083       .  S
C427        C428   1.206       .  T
C428        C429   1.440       .  S
C429        C430   1.401       .  A
C429        C434   1.399       .  A
C430        C431   1.401       .  A
C430        H439   1.083       .  S
C431        C432   1.407       .  A
C431        H440   1.083       .  S
C432        C433   1.406       .  A
C433        C434   1.395       .  A
C433        H441   1.083       .  S
C434        H442   1.084       .  S
C443        C444   1.408       .  A
C443        C448   1.406       .  A
C444        C445   1.397       .  A
C444        H457   1.083       .  S
C445        C446   1.399       .  A
C445        H458   1.084       .  S
C446        C447   1.401       .  A
C446        C449   1.440       .  S
C447        C448   1.401       .  A
C447        H459   1.083       .  S
C448        H460   1.083       .  S
C449        C450   1.206       .  T
C450        C451   1.440       .  S
C451        C452   1.400       .  A
C451        C456   1.399       .  A
C452        C453   1.399       .  A
C452        H461   1.083       .  S
C453        C454   1.407       .  A
C453        H462   1.082       .  S
C454        C455   1.404       .  A
C455        C456   1.398       .  A
C455        H463   1.078       .  S
C456        H464   1.084       .  S
C465        C466   1.407       .  A
C465        C470   1.409       .  A
C466        C467   1.397       .  A
C466        H479   1.083       .  S
C467        C468   1.399       .  A
C467        H480   1.084       .  S
C468        C469   1.399       .  A
C468        C471   1.438       .  S
C469        C470   1.398       .  A
C469        H481   1.084       .  S
C470        H482   1.083       .  S
C471        C472   1.205       .  T
C472        C473   1.438       .  S
C473        C474   1.399       .  A
C473        C478   1.400       .  A
C474        C475   1.398       .  A
C474        H483   1.084       .  S
C475        C476   1.408       .  A
C475        H484   1.083       .  S
C476        C477   1.406       .  A
C477        C478   1.398       .  A
C477        H485   1.083       .  S
C478        H486   1.083       .  S
C487        C488   1.409       .  A
C487        C492   1.408       .  A
C488        C489   1.395       .  A
C488        H501   1.083       .  S
C489        C490   1.397       .  A
C489        H502   1.084       .  S
C490        C491   1.401       .  A
C490        C493   1.440       .  S
C491        C492   1.402       .  A
C491        H503   1.083   1_565  S
C492        H504   1.083       .  S
C493        C494   1.206       .  T
C494        C495   1.441       .  S
C495        C496   1.399       .  A
C495        C500   1.400       .  A
C496        C497   1.398       .  A
C496        H505   1.084       .  S
C497        C498   1.409       .  A
C497        H506   1.082       .  S
C498        C499   1.409       .  A
C499        C500   1.400       .  A
C499        H507   1.082   1_565  S
C500        H508   1.083   1_565  S
C509        C510   1.407       .  A
C509        C514   1.408   1_455  A
C510        C511   1.394       .  A
C510        H523   1.083       .  S
C511        C512   1.398       .  A
C511        H524   1.084       .  S
C512        C513   1.400   1_455  A
C512        C515   1.437   1_455  S
C513        C514   1.400       .  A
C513        H525   1.083       .  S
C514        H526   1.083       .  S
C515        C516   1.204       .  T
C516        C517   1.437       .  S
C517        C518   1.400       .  A
C517        C522   1.399   1_655  A
C518        C519   1.399       .  A
C518        H527   1.083       .  S
C519        C520   1.407       .  A
C519        H528   1.083       .  S
C520        C521   1.405   1_655  A
C521        C522   1.396       .  A
C521        H529   1.083       .  S
C522        H530   1.084       .  S
C531        C532   1.409       .  A
C531        C536   1.406       .  A
C532        C533   1.402       .  A
C532        H545   1.083       .  S
C533        C534   1.401       .  A
C533        H546   1.083       .  S
C534        C535   1.398       .  A
C534        C537   1.440       .  S
C535        C536   1.395       .  A
C535        H547   1.084       .  S
C536        H548   1.083       .  S
C537        C538   1.206       .  T
C538        C539   1.440       .  S
C539        C540   1.399       .  A
C539        C544   1.400       .  A
C540        C541   1.397       .  A
C540        H549   1.084       .  S
C541        C542   1.408       .  A
C541        H550   1.083       .  S
C542        C543   1.409       .  A
C543        C544   1.400       .  A
C543        H551   1.083       .  S
C544        H552   1.083       .  S
C553        C554   1.408       .  A
C553        C558   1.411       .  A
C554        C555   1.404       .  A
C554        H567   1.083   1_655  S
C555        C556   1.402       .  A
C555        H568   1.083   1_655  S
C556        C557   1.399       .  A
C556        C559   1.446       .  S
C557        C558   1.398       .  A
C557        H569   1.084       .  S
C558        H570   1.083       .  S
C559        C560   1.210       .  T
C560        C561   1.446       .  S
C561        C562   1.400       .  A
C561        C566   1.401   1_655  A
C562        C563   1.400       .  A
C562        H571   1.083       .  S
C563        C564   1.409       .  A
C563        H572   1.083       .  S
C564        C565   1.409   1_655  A
C565        C566   1.401       .  A
C565        H573   1.083       .  S
C566        H574   1.083       .  S
C575        C576   1.407       .  A
C575        C580   1.407       .  A
C576        C577   1.398       .  A
C576        H589   1.083       .  S
C577        C578   1.400       .  A
C577        H590   1.083       .  S
C578        C579   1.399       .  A
C578        C581   1.438       .  S
C579        C580   1.397       .  A
C579        H591   1.083       .  S
C580        H592   1.083       .  S
C581        C582   1.205       .  T
C582        C583   1.438       .  S
C583        C584   1.401       .  A
C583        C588   1.398       .  A
C584        C585   1.400       .  A
C584        H593   1.083       .  S
C585        C586   1.406       .  A
C585        H594   1.083       .  S
C586        C587   1.409       .  A
C587        C588   1.396       .  A
C587        H595   1.083       .  S
C588        H596   1.084       .  S
C597        C598   1.409       .  A
C597        C602   1.408       .  A
C598        C599   1.395       .  A
C598        H611   1.083       .  S
C599        C600   1.397       .  A
C599        H612   1.084       .  S
C600        C601   1.401       .  A
C600        C603   1.439       .  S
C601        C602   1.401       .  A
C601        H613   1.083       .  S
C602        H614   1.083       .  S
C603        C604   1.206       .  T
C604        C605   1.439       .  S
C605        C606   1.399       .  A
C605        C610   1.400       .  A
C606        C607   1.399       .  A
C606        H615   1.083       .  S
C607        C608   1.409       .  A
C607        H616   1.083       .  S
C608        C609   1.407       .  A
C609        C610   1.398       .  A
C609        H617   1.083       .  S
C610        H618   1.084       .  S
C619        C620   1.407       .  A
C619        C624   1.408       .  A
C620        C621   1.399       .  A
C620        H633   1.083       .  S
C621        C622   1.400       .  A
C621        H634   1.083       .  S
C622        C623   1.399       .  A
C622        C625   1.438       .  S
C623        C624   1.397       .  A
C623        H635   1.084       .  S
C624        H636   1.083       .  S
C625        C626   1.205       .  T
C626        C627   1.438       .  S
C627        C628   1.401       .  A
C627        C632   1.399       .  A
C628        C629   1.398       .  A
C628        H637   1.084       .  S
C629        C630   1.404       .  A
C629        H638   1.083       .  S
C630        C631   1.406       .  A
C631        C632   1.398       .  A
C631        H639   1.083       .  S
C632        H640   1.083   1_565  S
C641        C642   1.408   1_655  A
C641        C646   1.409       .  A
C642        C643   1.400       .  A
C642        H655   1.083       .  S
C643        C644   1.400   1_455  A
C643        H656   1.083       .  S
C644        C645   1.402       .  A
C644        C647   1.448       .  S
C645        C646   1.403       .  A
C645        H657   1.083       .  S
C646        H658   1.083       .  S
C647        C648   1.211       .  T
C648        C649   1.448       .  S
C649        C650   1.402       .  A
C649        C654   1.400   1_655  A
C650        C651   1.404       .  A
C650        H659   1.083       .  S
C651        C652   1.410       .  A
C651        H660   1.083       .  S
C652        C653   1.410   1_655  A
C653        C654   1.400       .  A
C653        H661   1.083       .  S
C654        H662   1.084       .  S
C663        C664   1.407       .  A
C663        C668   1.408       .  A
C664        C665   1.402       .  A
C664        H677   1.083       .  S
C665        C666   1.401       .  A
C665        H678   1.083       .  S
C666        C667   1.400       .  A
C666        C669   1.446       .  S
C667        C668   1.400       .  A
C667        H679   1.084       .  S
C668        H680   1.083       .  S
C669        C670   1.210       .  T
C670        C671   1.446       .  S
C671        C672   1.400       .  A
C671        C676   1.401       .  A
C672        C673   1.399       .  A
C672        H681   1.083       .  S
C673        C674   1.408       .  A
C673        H682   1.082       .  S
C674        C675   1.410       .  A
C675        C676   1.402       .  A
C675        H683   1.083       .  S
C676        H684   1.083       .  S
C685        C686   1.408       .  A
C685        C690   1.408       .  A
C686        C687   1.402       .  A
C686        H699   1.083       .  S
C687        C688   1.401       .  A
C687        H700   1.083       .  S
C688        C689   1.398       .  A
C688        C691   1.441       .  S
C689        C690   1.395       .  A
C689        H701   1.084       .  S
C690        H702   1.083       .  S
C691        C692   1.207       .  T
C692        C693   1.441       .  S
C693        C694   1.400       .  A
C693        C698   1.401       .  A
C694        C695   1.398       .  A
C694        H703   1.084       .  S
C695        C696   1.407       .  A
C695        H704   1.083       .  S
C696        C697   1.408       .  A
C697        C698   1.401       .  A
C697        H705   1.083   1_655  S
C698        H706   1.083   1_655  S
C707        C708   1.408       .  A
C707        C712   1.408       .  A
C708        C709   1.401       .  A
C708        H721   1.083       .  S
C709        C710   1.401       .  A
C709        H722   1.083       .  S
C710        C711   1.398       .  A
C710        C713   1.442       .  S
C711        C712   1.397       .  A
C711        H723   1.084       .  S
C712        H724   1.083       .  S
C713        C714   1.207       .  T
C714        C715   1.442       .  S
C715        C716   1.402       .  A
C715        C720   1.400       .  A
C716        C717   1.400       .  A
C716        H725   1.083       .  S
C717        C718   1.403       .  A
C717        H726   1.083       .  S
C718        C719   1.404       .  A
C719        C720   1.398       .  A
C719        H727   1.083       .  S
C720        H728   1.083       .  S
C729        C730   1.409       .  A
C729        C734   1.408       .  A
C730        C731   1.404       .  A
C730        H743   1.083       .  S
C731        C732   1.402       .  A
C731        H744   1.083       .  S
C732        C733   1.399       .  A
C732        C735   1.446       .  S
C733        C734   1.398       .  A
C733        H745   1.084       .  S
C734        H746   1.083       .  S
C735        C736   1.210       .  T
C736        C737   1.446       .  S
C737        C738   1.401       .  A
C737        C742   1.402       .  A
C738        C739   1.399       .  A
C738        H747   1.083       .  S
C739        C740   1.405       .  A
C739        H748   1.083       .  S
C740        C741   1.405       .  A
C741        C742   1.403       .  A
C741        H749   1.083       .  S
C742        H750   1.083       .  S
C751        C752   1.407       .  A
C751        C756   1.404       .  A
C752        C753   1.398       .  A
C752        H765   1.083       .  S
C753        C754   1.400       .  A
C753        H766   1.083       .  S
C754        C755   1.402       .  A
C754        C757   1.444       .  S
C755        C756   1.401       .  A
C755        H767   1.083       .  S
C756        H768   1.083       .  S
C757        C758   1.208       .  T
C758        C759   1.444       .  S
C759        C760   1.400       .  A
C759        C764   1.402       .  A
C760        C761   1.398       .  A
C760        H769   1.084       .  S
C761        C762   1.406       .  A
C761        H770   1.083       .  S
C762        C763   1.406       .  A
C763        C764   1.401       .  A
C763        H771   1.083       .  S
C764        H772   1.083       .  S
C773        C774   1.407       .  A
C773        C778   1.406       .  A
C774        C775   1.396       .  A
C774        H787   1.083       .  S
C775        C776   1.398       .  A
C775        H788   1.084       .  S
C776        C777   1.401       .  A
C776        C779   1.438       .  S
C777        C778   1.400       .  A
C777        H789   1.083       .  S
C778        H790   1.083       .  S
C779        C780   1.205       .  T
C780        C781   1.438       .  S
C781        C782   1.401       .  A
C781        C786   1.400       .  A
C782        C783   1.399       .  A
C782        H791   1.083       .  S
C783        C784   1.404       .  A
C783        H792   1.083       .  S
C784        C785   1.404       .  A
C785        C786   1.396       .  A
C785        H793   1.083       .  S
C786        H794   1.084       .  S
C795        C796   1.408       .  A
C795        C800   1.407       .  A
C796        C797   1.400       .  A
C796        H809   1.083       .  S
C797        C798   1.400       .  A
C797        H810   1.083       .  S
C798        C799   1.399       .  A
C798        C801   1.440       .  S
C799        C800   1.397       .  A
C799        H811   1.084       .  S
C800        H812   1.083       .  S
C801        C802   1.206       .  T
C802        C803   1.440       .  S
C803        C804   1.399       .  A
C803        C808   1.402       .  A
C804        C805   1.396       .  A
C804        H813   1.084       .  S
C805        C806   1.406       .  A
C805        H814   1.083       .  S
C806        C807   1.403       .  A
C807        C808   1.401       .  A
C807        H815   1.083       .  S
C808        H816   1.083       .  S
C817        C818   1.408       .  A
C817        C822   1.408       .  A
C818        C819   1.403       .  A
C818        H831   1.083       .  S
C819        C820   1.402       .  A
C819        H832   1.083       .  S
C820        C821   1.399       .  A
C820        C823   1.444       .  S
C821        C822   1.398       .  A
C821        H833   1.084       .  S
C822        H834   1.083       .  S
C823        C824   1.209       .  T
C824        C825   1.444       .  S
C825        C826   1.401       .  A
C825        C830   1.402       .  A
C826        C827   1.399       .  A
C826        H835   1.083       .  S
C827        C828   1.405       .  A
C827        H836   1.083       .  S
C828        C829   1.403       .  A
C829        C830   1.401       .  A
C829        H837   1.080       .  S
C830        H838   1.083       .  S
C839        C840   1.404       .  A
C839        C844   1.403       .  A
C840        C841   1.396       .  A
C840        H853   1.083       .  S
C841        C842   1.399       .  A
C841        H854   1.083       .  S
C842        C843   1.402       .  A
C842        C845   1.440       .  S
C843        C844   1.400       .  A
C843        H855   1.083       .  S
C844        H856   1.083       .  S
C845        C846   1.206       .  T
C846        C847   1.440       .  S
C847        C848   1.399       .  A
C847        C852   1.401       .  A
C848        C849   1.396       .  A
C848        H857   1.084       .  S
C849        C850   1.406       .  A
C849        H858   1.083       .  S
C850        C851   1.407       .  A
C851        C852   1.401       .  A
C851        H859   1.083       .  S
C852        H860   1.083       .  S
C861        C862   1.409       .  A
C861        C866   1.404       .  A
C862        C863   1.400       .  A
C862        H875   1.083       .  S
C863        C864   1.400       .  A
C863        H876   1.083       .  S
C864        C865   1.402       .  A
C864        C867   1.446       .  S
C865        C866   1.401       .  A
C865        H877   1.083       .  S
C866        H878   1.079       .  S
C867        C868   1.210       .  T
C868        C869   1.446       .  S
C869        C870   1.400       .  A
C869        C874   1.402       .  A
C870        C871   1.398       .  A
C870        H879   1.083       .  S
C871        C872   1.407       .  A
C871        H880   1.083       .  S
C872        C873   1.408       .  A
C873        C874   1.403       .  A
C873        H881   1.083       .  S
C874        H882   1.083       .  S
C883        C884   1.403       .  A
C883        C888   1.404       .  A
C884        C885   1.394       .  A
C884        H897   1.083       .  S
C885        C886   1.399       .  A
C885        H898   1.084       .  S
C886        C887   1.401       .  A
C886        C889   1.436       .  S
C887        C888   1.400       .  A
C887        H899   1.083       .  S
C888        H900   1.083       .  S
C889        C890   1.204       .  T
C890        C891   1.436       .  S
C891        C892   1.400       .  A
C891        C896   1.399       .  A
C892        C893   1.400       .  A
C892        H901   1.083       .  S
C893        C894   1.406       .  A
C893        H902   1.083       .  S
C894        C895   1.404       .  A
C895        C896   1.394       .  A
C895        H903   1.083       .  S
C896        H904   1.084       .  S
C905        C906   1.406       .  A
C905        C910   1.406       .  A
C906        C907   1.402       .  A
C906        H919   1.083       .  S
C907        C908   1.402       .  A
C907        H920   1.083       .  S
C908        C909   1.400       .  A
C908        C911   1.444       .  S
C909        C910   1.398       .  A
C909        H921   1.084       .  S
C910        H922   1.083       .  S
C911        C912   1.209       .  T
C912        C913   1.444       .  S
C913        C914   1.401       .  A
C913        C918   1.401       .  A
C914        C915   1.400       .  A
C914        H923   1.083       .  S
C915        C916   1.405       .  A
C915        H924   1.083       .  S
C916        C917   1.403       .  A
C917        C918   1.400       .  A
C917        H925   1.081       .  S
C918        H926   1.083       .  S
C927        C928   1.406       .  A
C927        C932   1.407       .  A
C928        C929   1.398       .  A
C928        H941   1.083       .  S
C929        C930   1.400       .  A
C929        H942   1.084       .  S
C930        C931   1.399       .  A
C930        C933   1.437       .  S
C931        C932   1.397       .  A
C931        H943   1.084       .  S
C932        H944   1.083       .  S
C933        C934   1.204       .  T
C934        C935   1.437       .  S
C935        C936   1.400       .  A
C935        C940   1.398       .  A
C936        C937   1.399       .  A
C936        H945   1.084       .  S
C937        C938   1.408       .  A
C937        H946   1.083       .  S
C938        C939   1.408       .  A
C939        C940   1.396       .  A
C939        H947   1.083       .  S
C940        H948   1.084       .  S
C949        C950   1.408       .  A
C949        C954   1.408       .  A
C950        C951   1.397       .  A
C950        H963   1.083       .  S
C951        C952   1.399       .  A
C951        H964   1.084       .  S
C952        C953   1.398       .  A
C952        C955   1.436       .  S
C953        C954   1.397       .  A
C953        H965   1.083       .  S
C954        H966   1.083       .  S
C955        C956   1.204       .  T
C956        C957   1.436       .  S
C957        C958   1.401       .  A
C957        C962   1.398       .  A
C958        C959   1.399       .  A
C958        H967   1.083       .  S
C959        C960   1.403       .  A
C959        H968   1.081       .  S
C960        C961   1.404       .  A
C961        C962   1.394       .  A
C961        H969   1.083       .  S
C962        H970   1.084       .  S
C971        C972   1.406       .  A
C971        C976   1.404       .  A
C972        C973   1.398       .  A
C972        H985   1.083       .  S
C973        C974   1.400       .  A
C973        H986   1.083       .  S
C974        C975   1.400       .  A
C974        C977   1.439       .  S
C975        C976   1.398       .  A
C975        H987   1.083       .  S
C976        H988   1.083       .  S
C977        C978   1.206       .  T
C978        C979   1.439       .  S
C979        C980   1.398       .  A
C979        C984   1.400       .  A
C980        C981   1.396       .  A
C980        H989   1.084       .  S
C981        C982   1.408       .  A
C981        H990   1.083       .  S
C982        C983   1.408       .  A
C983        C984   1.399       .  A
C983        H991   1.083       .  S
C984        H992   1.083       .  S
