geometry optimzed in LAMMPS
_audit_creation_date              2020-11-30 
_audit_creation_method            'lammps2cif' 
_symmetry_space_group_name_H-M    'P1' 
_symmetry_Int_Tables_number       1 
_symmetry_cell_setting            triclinic 
loop_ 
_symmetry_equiv_pos_as_xyz 
  x,y,z 
_cell_length_a                    42.15150379 
_cell_length_b                    43.77121194472142 
_cell_length_c                    49.46409123730819 
_cell_angle_alpha                 90.189521961691 
_cell_angle_beta                  90.33574946194248 
_cell_angle_gamma                 119.14939802744522 
loop_ 
_atom_site_label 
_atom_site_type_symbol 
_atom_site_fract_x 
_atom_site_fract_y 
_atom_site_fract_z 
_atom_site_charge 
C1          C  0.32428679  0.16545023  0.27817691     0.45500
H2          H  0.31945585  0.16425149  0.29947289    -0.03600
C3          C  0.32979861  0.16868351  0.22638755     0.45500
H4          H  0.33131318  0.16906751  0.20409589    -0.03600
C5          C  0.29888268  0.13049069  0.26459065    -0.17200
C6          C  0.31539297  0.19293396  0.26611769    -0.17000
C7          C  0.36327770  0.17482074  0.26902341    -0.17400
C8          C  0.30113484  0.13174873  0.23699176    -0.17400
C9          C  0.31849136  0.19512743  0.23834358    -0.16900
C10         C  0.36706475  0.17798256  0.24049336    -0.17200
O11         O  0.12550989  0.15798920  0.47320100    -0.72900
O12         O  0.16101758  0.11880964  0.03167906    -0.73900
O13         O  0.16850584  0.12446015  0.47479433    -0.62500
O14         O  0.11679921  0.15210886  0.03110540    -0.70900
O15         O  0.06837323  0.09936514  0.02826343    -0.70500
O16         O  0.11773621  0.07375161  0.46990993    -0.61700
O17         O  0.11222108  0.06657616  0.02678714    -0.74300
O18         O  0.07479677  0.10730084  0.47109748    -0.73000
Cu19       Cu  0.14508745  0.14055745  0.50306900     1.04600
Cu20       Cu  0.09171401  0.08556981  0.49886149     1.04300
C21         C  0.09439564  0.13834782  0.46247027     0.93300
C22         C  0.14281065  0.08652833  0.03808096     0.92400
C23         C  0.15057375  0.09462648  0.46319149     0.84600
C24         C  0.08468451  0.13000237  0.03869452     0.90800
O25         O  0.40446415  0.45590352  0.02298560    -0.72900
O26         O  0.43964667  0.03673093  0.47220179    -0.73900
O27         O  0.43414340  0.02968777  0.02973240    -0.62500
O28         O  0.40737893  0.46309514  0.46573804    -0.70900
O29         O  0.35413664  0.46123816  0.46506769    -0.70500
O30         O  0.37914153  0.02469931  0.02769533    -0.61700
O31         O  0.38534696  0.03338320  0.47073340    -0.74300
O32         O  0.34977374  0.45106588  0.02291917    -0.73000
Cu33       Cu  0.42296916  0.49687243  0.49763850     1.04600
Cu34       Cu  0.36477301  0.49264540  0.49638103     1.04300
C35         C  0.37208750  0.44128466  0.03176167     0.93300
C36         C  0.41850019  0.04748657  0.46317990     0.92400
C37         C  0.41055758  0.03780163  0.03841845     0.84600
C38         C  0.37573023  0.45168145  0.45524235     0.90800
O39         O  0.03609112  0.43641920  0.02761943    -0.72900
O40         O  0.45811803  0.39876415  0.47155182    -0.73900
O41         O  0.46016233  0.39430562  0.02970150    -0.62500
O42         O  0.03513454  0.43924290  0.47150718    -0.70900
O43         O  0.04057818  0.39151851  0.46993731    -0.70500
O44         O  0.46383025  0.34556573  0.02615885    -0.61700
O45         O  0.46359821  0.35094836  0.46842705    -0.74300
O46         O  0.03974519  0.38793355  0.02800972    -0.73000
Cu47       Cu  0.49702401  0.41942839  0.50000249     1.04600
Cu48       Cu  0.50254908  0.36709925  0.99779141     1.04300
C49         C  0.04966773  0.41853511  0.03750141     0.93300
C50         C  0.44867576  0.36895905  0.46086561     0.92400
C51         C  0.45081530  0.36319795  0.03756394     0.84600
C52         C  0.05050513  0.42259822  0.46193778     0.90800
C53         C  0.46684934  0.17522484  0.16072925     0.02300
C54         C  0.00624516  0.19488733  0.16092011     0.02300
C55         C  0.02501041  0.18838962  0.14014723    -0.18300
C56         C  0.00677678  0.16282842  0.12022532     0.02300
C57         C  0.46800342  0.14322841  0.12059216     0.02300
C58         C  0.44886601  0.15004296  0.14050800    -0.18300
H59         H  0.41941849  0.13493652  0.14055841     0.04300
H60         H  0.05447853  0.20270242  0.14000447     0.04300
C61         C  0.29772915  0.31925229  0.16358713     0.02300
C62         C  0.31646368  0.29952725  0.16635714     0.02300
C63         C  0.34178500  0.30280453  0.14651951    -0.18300
C64         C  0.34944795  0.32511474  0.12443647     0.02300
C65         C  0.33127659  0.34494073  0.12184335     0.02300
C66         C  0.30592572  0.34187034  0.14137384    -0.18300
H67         H  0.29240634  0.35741953  0.13929280     0.04300
H68         H  0.35565036  0.28752299  0.14823385     0.04300
C69         C  0.47725592  0.18826363  0.34422590     0.02300
C70         C  0.01611890  0.20677225  0.34134517     0.02300
C71         C  0.03719776  0.20292192  0.36193224    -0.18300
C72         C  0.02174808  0.17762621  0.38209802     0.02300
C73         C  0.48311679  0.15696746  0.38347198     0.02300
C74         C  0.46205773  0.16309292  0.36478278    -0.18300
H75         H  0.43284967  0.14694667  0.36599998     0.04300
H76         H  0.06658209  0.21771977  0.36079846     0.04300
C77         C  0.29484545  0.27938458  0.34321574     0.02300
C78         C  0.28434495  0.30512004  0.33623707     0.02300
C79         C  0.30011515  0.33744165  0.35062788    -0.18300
C80         C  0.32491697  0.34509090  0.37197895     0.02300
C81         C  0.33581145  0.32042374  0.37881561     0.02300
C82         C  0.32068126  0.28863294  0.36483403    -0.18300
H83         H  0.33087889  0.27158240  0.37118938     0.04300
H84         H  0.29205198  0.35682623  0.34565828     0.04300
C85         C  0.21473461  0.01812754  0.33837697     0.02300
C86         C  0.19122621  0.48091363  0.33896613     0.02300
C87         C  0.16920793  0.46691223  0.36206684    -0.18300
C88         C  0.16531048  0.48796008  0.38182881     0.02300
C89         C  0.18809713  0.02472747  0.38090349     0.02300
C90         C  0.21359048  0.03883501  0.36005540    -0.18300
H91         H  0.23087818  0.06701078  0.35946094     0.04300
H92         H  0.15226702  0.43880112  0.36368063     0.04300
C93         C  0.20905598  0.01703742  0.16449734     0.02300
C94         C  0.18151921  0.48164050  0.16722349     0.02300
C95         C  0.15642887  0.46592114  0.14610251    -0.18300
C96         C  0.15705861  0.48431041  0.12297988     0.02300
C97         C  0.18385281  0.01957391  0.12030978     0.02300
C98         C  0.21068331  0.03463020  0.14037320    -0.18300
H99         H  0.23168162  0.06164943  0.13814704     0.04300
H100        H  0.13582233  0.43861277  0.14766643     0.04300
C101        C  0.15435243  0.32714604  0.27410968     0.45500
H102        H  0.15122699  0.32438036  0.29618234    -0.03600
C103        C  0.15625490  0.33083678  0.22202789     0.45500
H104        H  0.15686311  0.33338181  0.19977278    -0.03600
C105        C  0.11884370  0.29880038  0.26067321    -0.17200
C106        C  0.16160471  0.36374356  0.26377901    -0.17000
C107        C  0.18539774  0.32139628  0.26202910    -0.17400
C108        C  0.11939978  0.30023901  0.23279329    -0.17400
C109        C  0.16213845  0.36533682  0.23591668    -0.16900
C110        C  0.18700386  0.32413428  0.23384570    -0.17200
C111        C  0.14941782  0.43991025  0.20552546    -0.01800
C112        C  0.18015965  0.45710723  0.18865430     0.07800
C113        C  0.20304880  0.44236398  0.18583773    -0.01900
C114        C  0.19787783  0.41353406  0.20151390    -0.02000
C115        C  0.16868027  0.39753027  0.21997862     0.08000
C116        C  0.14422181  0.41106159  0.22145967    -0.02100
Br117      Br  0.10020906  0.38765127  0.24200148    -0.00700
Br118      Br  0.11044946  0.45117421  0.20324259    -0.00800
Br119      Br  0.23150443  0.39674635  0.19583032    -0.00700
Br120      Br  0.23674648  0.45657778  0.15603780    -0.00700
C121        C  0.14935651  0.42857204  0.30991023    -0.01800
C122        C  0.18525203  0.45487208  0.31632923     0.07800
C123        C  0.21335560  0.45037663  0.30489657    -0.01900
C124        C  0.20546297  0.42444431  0.28479919    -0.02000
C125        C  0.17012125  0.39513517  0.28228180     0.08000
C126        C  0.14300674  0.39676598  0.29785949    -0.02100
Br127      Br  0.09928294  0.35568144  0.30714229    -0.00700
Br128      Br  0.10824107  0.43539814  0.31705512    -0.00800
Br129      Br  0.24435850  0.43057770  0.26213239    -0.00700
Br130      Br  0.26066724  0.47123952  0.32092841    -0.00700
C131        C  0.21232245  0.32096553  0.30862381    -0.01800
C132        C  0.20957704  0.31315426  0.28048539     0.07800
C133        C  0.22938473  0.29605375  0.27178189    -0.01900
C134        C  0.25811288  0.29852797  0.28822782    -0.02000
C135        C  0.25533214  0.30048386  0.31646746     0.08000
C136        C  0.22721808  0.30604825  0.32584704    -0.02100
Br137      Br  0.20571073  0.28959164  0.36043160    -0.00700
Br138      Br  0.20964123  0.35994214  0.32432159    -0.00800
Br139      Br  0.30106925  0.30277290  0.27154781    -0.00700
Br140      Br  0.21217936  0.26033134  0.24426088    -0.00700
C141        C  0.06344391  0.21947559  0.30617142    -0.01800
C142        C  0.03682354  0.22681283  0.31681210     0.07800
C143        C  0.03497915  0.25575683  0.30607799    -0.01900
C144        C  0.05667359  0.27376485  0.28349896    -0.02000
C145        C  0.08836579  0.27145244  0.27769349     0.08000
C146        C  0.09230136  0.24499840  0.29127639    -0.02100
Br147      Br  0.13740362  0.24453785  0.29444466    -0.00700
Br148      Br  0.06183671  0.17510837  0.31251973    -0.00800
Br149      Br  0.04217280  0.30052507  0.26097044    -0.00700
Br150      Br  0.00957801  0.27547342  0.32529365    -0.00700
C151        C  0.20609887  0.30251374  0.19127580    -0.01800
C152        C  0.21592061  0.32286961  0.21567767     0.07800
C153        C  0.25402816  0.34300822  0.22161107    -0.01900
C154        C  0.28016383  0.34192861  0.20442282    -0.02000
C155        C  0.26968257  0.31805716  0.18274192     0.08000
C156        C  0.23260793  0.29987459  0.17544608    -0.02100
Br157      Br  0.21844151  0.27439389  0.14154668    -0.00700
Br158      Br  0.15682241  0.27700065  0.17812711    -0.00800
Br159      Br  0.33019272  0.37841203  0.20726432    -0.00700
Br160      Br  0.27312202  0.37524350  0.25160533    -0.00700
C161        C  0.04046877  0.25661745  0.18014727    -0.01800
C162        C  0.03009615  0.22078227  0.18227524     0.07800
C163        C  0.05068703  0.21156482  0.19974813    -0.01900
C164        C  0.07992825  0.23722970  0.21528788    -0.02000
C165        C  0.08889436  0.27299988  0.21477971     0.08000
C166        C  0.06957809  0.28238683  0.19598364    -0.02100
Br167      Br  0.08492151  0.33072426  0.18926114    -0.00700
Br168      Br  0.01696371  0.27088181  0.15347836    -0.00800
Br169      Br  0.11250468  0.22363435  0.23161512    -0.00700
Br170      Br  0.04153619  0.16377341  0.20018570    -0.00700
C171        C  0.42691065  0.34722644  0.41364717    -0.01800
C172        C  0.41980082  0.35501330  0.43989284     0.07800
C173        C  0.38453924  0.34852251  0.44629158    -0.01900
C174        C  0.35614830  0.33152891  0.42747449    -0.02000
C175        C  0.36380600  0.32783129  0.40038387     0.08000
C176        C  0.39922754  0.33456812  0.39368502    -0.02100
Br177      Br  0.41011806  0.32683327  0.35726086    -0.00700
Br178      Br  0.47540498  0.35707355  0.40439353    -0.00800
Br179      Br  0.30671284  0.30923629  0.43972799    -0.00700
Br180      Br  0.37500941  0.36505495  0.47982738    -0.00700
C181        C  0.13809889  0.44947974  0.42258020    -0.01800
C182        C  0.13571369  0.47076555  0.40221498     0.07800
C183        C  0.10401223  0.47397082  0.40037091    -0.01900
C184        C  0.07695268  0.45950436  0.42032065    -0.02000
C185        C  0.07992481  0.43928524  0.44144427     0.08000
C186        C  0.11065915  0.43414303  0.44222764    -0.02100
Br187      Br  0.11686098  0.40758016  0.47086707    -0.00700
Br188      Br  0.17817373  0.43973391  0.42286263    -0.00800
Br189      Br  0.03500554  0.46629565  0.41741329    -0.00700
Br190      Br  0.09489805  0.49378417  0.36851517    -0.00700
C191        C  0.07561335  0.45977348  0.07750203    -0.01800
C192        C  0.07615161  0.43363620  0.06045718     0.07800
C193        C  0.10176440  0.42216442  0.06608555    -0.01900
C194        C  0.12752806  0.43807310  0.08704505    -0.02000
C195        C  0.12812389  0.46552239  0.10246039     0.08000
C196        C  0.10076615  0.47459107  0.09881411    -0.02100
Br197      Br  0.09594260  0.00523281  0.12447366    -0.00700
Br198      Br  0.03964688  0.97482041  0.07361299    -0.00800
Br199      Br  0.16285167  0.42277917  0.09424386    -0.00700
Br200      Br  0.10365812  0.38575901  0.04506139    -0.00700
C201        C  0.36445809  0.31234279  0.07808380    -0.01800
C202        C  0.37635063  0.32757399  0.10386199     0.07800
C203        C  0.41397218  0.34715834  0.10911147    -0.01900
C204        C  0.43856059  0.35792431  0.08742163    -0.02000
C205        C  0.42569016  0.34799847  0.06067012     0.08000
C206        C  0.38915583  0.32238522  0.05650161    -0.02100
Br207      Br  0.37354124  0.29942913  0.02193854    -0.00700
Br208      Br  0.31524354  0.27530200  0.07331343    -0.00800
Br209      Br  0.48992191  0.38373373  0.09459012    -0.00700
Br210      Br  0.43186615  0.35736496  0.14588597    -0.00700
C211        C  0.42331383  0.09647969  0.05538436    -0.01800
C212        C  0.41976911  0.06331528  0.06055691     0.07800
C213        C  0.42279135  0.05418402  0.08730522    -0.01900
C214        C  0.43593233  0.07992861  0.10766971    -0.02000
C215        C  0.44732763  0.11493638  0.10086359     0.08000
C216        C  0.43775495  0.12257302  0.07549069    -0.02100
Br217      Br  0.44102564  0.16744525  0.06934857    -0.00700
Br218      Br  0.40572772  0.10530727  0.02185281    -0.00800
Br219      Br  0.93730521  0.06748995  0.14453722    -0.00700
Br220      Br  0.40456890  0.00603124  0.09663142    -0.00700
C221        C  0.45788818  0.11014064  0.45086185    -0.01800
C222        C  0.43265670  0.07572179  0.44311306     0.07800
C223        C  0.42291420  0.06782100  0.41567868    -0.01900
C224        C  0.43998857  0.09386929  0.39595404    -0.02000
C225        C  0.46415076  0.12890767  0.40397424     0.08000
C226        C  0.47012383  0.13704068  0.43178570    -0.02100
Br227      Br  0.99114475  0.18423973  0.44425524    -0.00700
Br228      Br  0.47864974  0.12045287  0.48674248    -0.00800
Br229      Br  0.43059670  0.08056123  0.35819486    -0.00700
Br230      Br  0.38796118  0.02067182  0.40500420    -0.00700
C231        C  0.32518336  0.40252064  0.42923020    -0.01800
C232        C  0.36277542  0.42689425  0.43185383     0.07800
C233        C  0.38667259  0.42817711  0.41128678    -0.01900
C234        C  0.37348848  0.40365692  0.38977879    -0.02000
C235        C  0.33677862  0.37727002  0.38893356     0.08000
C236        C  0.31244038  0.37861343  0.40762241    -0.02100
Br237      Br  0.26128406  0.34641442  0.40506441    -0.00700
Br238      Br  0.28988486  0.39880388  0.45590782    -0.00800
Br239      Br  0.40505588  0.40703791  0.36058274    -0.00700
Br240      Br  0.43713662  0.46389677  0.41154874    -0.00700
C241        C  0.32626746  0.38553417  0.05488790    -0.01800
C242        C  0.36159967  0.41477731  0.05369754     0.07800
C243        C  0.38640894  0.42014265  0.07509340    -0.01900
C244        C  0.37421128  0.40028870  0.09873161    -0.02000
C245        C  0.33995069  0.37019316  0.09930126     0.06100
C246        C  0.31574722  0.36296380  0.07737169    -0.02100
Br247      Br  0.26779078  0.32276642  0.07840925    -0.00700
Br248      Br  0.29342404  0.37370028  0.02462000    -0.00800
Br249      Br  0.40270918  0.41693277  0.13149246    -0.00700
Br250      Br  0.43794951  0.45233257  0.07244450    -0.00700
C251        C  0.05935725  0.16783855  0.05629697    -0.01800
C252        C  0.06610924  0.13951102  0.05991290     0.07800
C253        C  0.05472545  0.11994596  0.08395451    -0.01900
C254        C  0.03741642  0.12900541  0.10424914    -0.02000
C255        C  0.02846794  0.15573751  0.09986013     0.08000
C256        C  0.04080247  0.17602961  0.07624063    -0.02100
Br257      Br  0.03426298  0.21639284  0.07193149    -0.00700
Br258      Br  0.07332595  0.19414195  0.02330368    -0.00800
Br259      Br  0.02964095  0.10722089  0.13909344    -0.00700
Br260      Br  0.06295123  0.08067820  0.08939099    -0.00700
C261        C  0.08883904  0.18616605  0.43752089    -0.01800
C262        C  0.08068546  0.15071769  0.43956427     0.07800
C263        C  0.05880177  0.12660383  0.41917861    -0.01900
C264        C  0.04401311  0.13748723  0.39837358    -0.02000
C265        C  0.04607492  0.17045612  0.39971188     0.08000
C266        C  0.07050501  0.19567896  0.41821365    -0.02100
Br267      Br  0.07834590  0.24306065  0.41767998    -0.00700
Br268      Br  0.12428645  0.22221962  0.46090533    -0.00800
Br269      Br  0.52352452  0.10818657  0.36683765    -0.00700
Br270      Br  0.54696477  0.07759182  0.41913931    -0.00700
C271        C  0.16034342  0.08705371  0.41423477    -0.01800
C272        C  0.16733428  0.08375698  0.44158750     0.07800
C273        C  0.18900557  0.06849563  0.44806757    -0.01900
C274        C  0.19708887  0.05029403  0.42807381    -0.02000
C275        C  0.18485822  0.04863997  0.40119830     0.08000
C276        C  0.16972147  0.07016966  0.39398972    -0.02100
Br277      Br  0.16318328  0.07835994  0.35670933    -0.00700
Br278      Br  0.14101033  0.11736526  0.40451204    -0.00800
Br279      Br  0.22755262  0.03032821  0.43700544    -0.00700
Br280      Br  0.21063267  0.07588405  0.48349923    -0.00700
C281        C  0.17864193  0.03149509  0.07131875    -0.01800
C282        C  0.18188156  0.04223408  0.09849614     0.07800
C283        C  0.17765753  0.07172031  0.10490576    -0.01900
C284        C  0.16684477  0.08741843  0.08466576    -0.02000
C285        C  0.15732499  0.07212745  0.05866212     0.08000
C286        C  0.16234717  0.04333362  0.05233598    -0.02100
Br287      Br  0.14422171  0.01753655  0.01894408    -0.00700
Br288      Br  0.20039765  0.50386932  0.05948932    -0.00800
Br289      Br  0.16144440  0.12769545  0.09353029    -0.00700
Br290      Br  0.18413604  0.09004755  0.14135700    -0.00700
C291        C  0.33595793  0.28382681  0.20989986    -0.01800
C292        C  0.31074321  0.27388628  0.18827609     0.07800
C293        C  0.28892696  0.23791531  0.18257001    -0.01900
C294        C  0.29185143  0.21245843  0.19824950    -0.02000
C295        C  0.31490648  0.22218140  0.22140283     0.08000
C296        C  0.33735480  0.25843031  0.22672933    -0.02100
Br297      Br  0.37618956  0.27412709  0.25300678    -0.00700
Br298      Br  0.37348041  0.33192793  0.21358678    -0.00800
Br299      Br  0.26655398  0.16497083  0.18532457    -0.00700
Br300      Br  0.25865617  0.22344498  0.15049766    -0.00700
C301        C  0.32383435  0.22463601  0.31016058    -0.01800
C302        C  0.30495159  0.21382530  0.28526145     0.07800
C303        C  0.27176067  0.21517908  0.28359048    -0.01900
C304        C  0.26194772  0.23113650  0.30501491    -0.02000
C305        C  0.28533471  0.24549614  0.32770291     0.08000
C306        C  0.30830852  0.23153802  0.33201086    -0.02100
Br307      Br  0.30127697  0.20336517  0.36352197    -0.00700
Br308      Br  0.37351712  0.23819918  0.31584294    -0.00800
Br309      Br  0.21165780  0.21824001  0.30954500    -0.00700
Br310      Br  0.23882581  0.19457386  0.25370614    -0.00700
C311        C  0.42863357  0.19849655  0.28312530    -0.01800
C312        C  0.39217572  0.17963119  0.29024692     0.07800
C313        C  0.38668261  0.17322856  0.31904679    -0.01900
C314        C  0.41744226  0.18710855  0.33643091    -0.02000
C315        C  0.45086427  0.19219533  0.32610464     0.08000
C316        C  0.45356495  0.19235902  0.29800132    -0.02100
Br317      Br  0.46959871  0.16165980  0.28294744    -0.00700
Br318      Br  0.44287841  0.24692788  0.27675303    -0.00800
Br319      Br  0.41357056  0.19882621  0.37362796    -0.00700
Br320      Br  0.34194705  0.14405774  0.33779129    -0.00700
C321        C  0.40421622  0.20317414  0.19618339    -0.01800
C322        C  0.40120720  0.18837557  0.22248248     0.07800
C323        C  0.42777477  0.17796181  0.22775929    -0.01900
C324        C  0.43735660  0.16311825  0.20647657    -0.02000
C325        C  0.44316865  0.17918895  0.18108713     0.08000
C326        C  0.42500941  0.19845715  0.17561280    -0.02100
Br327      Br  0.42436990  0.21401175  0.13924045    -0.00700
Br328      Br  0.38643651  0.23508249  0.18878669    -0.00800
Br329      Br  0.44922056  0.12692952  0.21382716    -0.00700
Br330      Br  0.47664993  0.21690893  0.23349418    -0.00700
C331        C  0.24110123  0.08846827  0.28880696    -0.01800
C332        C  0.27665310  0.09791761  0.28080506     0.07800
C333        C  0.29237831  0.07867244  0.29196266    -0.01900
C334        C  0.27358164  0.05392970  0.31244868    -0.02000
C335        C  0.23520533  0.03879598  0.31429149     0.08000
C336        C  0.21895345  0.05510299  0.29953719    -0.02100
Br337      Br  0.16706859  0.03566353  0.29839114    -0.00700
Br338      Br  0.22937312  0.12435671  0.29865658    -0.00800
Br339      Br  0.30195758  0.05117938  0.34216369    -0.00700
Br340      Br  0.34070232  0.08890947  0.28225092    -0.00700
C341        C  0.21702668  0.05511800  0.20416333    -0.01800
C342        C  0.23234384  0.04014723  0.18693984     0.07800
C343        C  0.27071597  0.05663148  0.18523880    -0.01900
C344        C  0.29302399  0.08531626  0.20224005    -0.02000
C345        C  0.27762614  0.10050652  0.21923815     0.08000
C346        C  0.23933029  0.08576676  0.21901727    -0.02100
Br347      Br  0.21650456  0.11063298  0.23392770    -0.00700
Br348      Br  0.16526069  0.03790205  0.20369649    -0.00800
Br349      Br  0.34478914  0.10429273  0.20101666    -0.00700
Br350      Br  0.29327317  0.04374200  0.15691151    -0.00700
C351        C  0.32426795  0.16542776  0.77777045     0.45500
H352        H  0.31945747  0.16430122  0.79906728    -0.03600
C353        C  0.32971430  0.16858074  0.72596760     0.45500
H354        H  0.33121554  0.16892149  0.70366769    -0.03600
C355        C  0.29882829  0.13044646  0.76424345    -0.17200
C356        C  0.31550042  0.19298285  0.76567788    -0.17000
C357        C  0.36318702  0.17466067  0.76861683    -0.17400
C358        C  0.30100357  0.13166463  0.73664393    -0.17400
C359        C  0.31853952  0.19516792  0.73790129    -0.16900
C360        C  0.36696940  0.17777630  0.74008579    -0.17200
O361        O  0.12362345  0.15708031  0.97336625    -0.72900
O362        O  0.16122948  0.11899258  0.53225398    -0.73900
O363        O  0.16735233  0.12430802  0.97416168    -0.62500
O364        O  0.11802655  0.15319806  0.53099755    -0.70900
O365        O  0.06908256  0.10084870  0.52774585    -0.70500
O366        O  0.11682474  0.07337886  0.96942589    -0.61700
O367        O  0.11188959  0.06719591  0.52719707    -0.74300
O368        O  0.07314913  0.10618951  0.97161464    -0.73000
Cu369      Cu  0.14395124  0.13996347  0.00283888     1.04600
Cu370      Cu  0.09099043  0.08464139  0.99891067     1.04300
C371        C  0.09235956  0.13728682  0.96294695     0.93300
C372        C  0.14242460  0.08676214  0.53868183     0.92400
C373        C  0.14949387  0.09451034  0.96247736     0.84600
C374        C  0.08571547  0.13136246  0.53835992     0.90800
O375        O  0.40348810  0.45663339  0.52285813    -0.72900
O376        O  0.44090727  0.03631785  0.97239792    -0.73900
O377        O  0.43311480  0.03021927  0.52943233    -0.62500
O378        O  0.40831109  0.46249143  0.96584918    -0.70900
O379        O  0.35500341  0.46053735  0.96533860    -0.70500
O380        O  0.37805781  0.02513824  0.52755274    -0.61700
O381        O  0.38658797  0.03291857  0.97082783    -0.74300
O382        O  0.34879620  0.45178093  0.52268472    -0.73000
Cu383      Cu  0.42395359  0.49620683  0.99782828     1.04600
Cu384      Cu  0.36572777  0.49191737  0.99665979     1.04300
C385        C  0.37108361  0.44198551  0.53157774     0.93300
C386        C  0.41972923  0.04698191  0.96326275     0.92400
C387        C  0.40953428  0.03830377  0.53816335     0.84600
C388        C  0.37661546  0.45106137  0.95542348     0.90800
O389        O  0.03544715  0.43638485  0.52797466    -0.72900
O390        O  0.45838158  0.39781897  0.97166317    -0.73900
O391        O  0.45975949  0.39544710  0.52954515    -0.62500
O392        O  0.03513082  0.43880102  0.97129990    -0.70900
O393        O  0.04102638  0.39130103  0.97003472    -0.70500
O394        O  0.46359488  0.34675580  0.52629539    -0.61700
O395        O  0.46416315  0.35019894  0.96821961    -0.74300
O396        O  0.03930627  0.38799421  0.52794685    -0.73000
Cu397      Cu  0.49737785  0.41847602  0.00006188     1.04600
Cu398      Cu  0.50209660  0.36797648  0.49786641     1.04300
C399        C  0.04901571  0.41841246  0.53772494     0.93300
C400        C  0.44909040  0.36813665  0.96080424     0.92400
C401        C  0.45051372  0.36442183  0.53753187     0.84600
C402        C  0.05066711  0.42225264  0.96186807     0.90800
C403        C  0.46690006  0.17524400  0.66034779     0.02300
C404        C  0.00611691  0.19501610  0.66045455     0.02300
C405        C  0.02509478  0.18895643  0.63962050    -0.18300
C406        C  0.00712179  0.16336195  0.61970552     0.02300
C407        C  0.46840639  0.14354159  0.62020588     0.02300
C408        C  0.44909583  0.15031183  0.63997830    -0.18300
H409        H  0.41963757  0.13531172  0.63981951     0.04300
H410        H  0.05455706  0.20356836  0.63947937     0.04300
C411        C  0.29722823  0.31938525  0.66338361     0.02300
C412        C  0.31605210  0.29972074  0.66602077     0.02300
C413        C  0.34117806  0.30304598  0.64601935    -0.18300
C414        C  0.34856962  0.32533595  0.62394371     0.02300
C415        C  0.33025032  0.34503623  0.62142043     0.02300
C416        C  0.30508692  0.34192724  0.64112584    -0.18300
H417        H  0.29146112  0.35739266  0.63916311     0.04300
H418        H  0.35518197  0.28788188  0.64762847     0.04300
C419        C  0.47685137  0.18756697  0.84382325     0.02300
C420        C  0.01534537  0.20654989  0.84141020     0.02300
C421        C  0.03612872  0.20259918  0.86218644    -0.18300
C422        C  0.02037556  0.17705718  0.88216795     0.02300
C423        C  0.48250695  0.15623511  0.88314225     0.02300
C424        C  0.46151170  0.16237968  0.86439086    -0.18300
H425        H  0.43228693  0.14633957  0.86559646     0.04300
H426        H  0.06552654  0.21744050  0.86129715     0.04300
C427        C  0.29528401  0.27936577  0.84303796     0.02300
C428        C  0.28485539  0.30513663  0.83595886     0.02300
C429        C  0.30069705  0.33748955  0.85034664    -0.18300
C430        C  0.32550573  0.34511882  0.87172292     0.02300
C431        C  0.33627466  0.32038592  0.87863021     0.02300
C432        C  0.32098941  0.28854036  0.86473760    -0.18300
H433        H  0.33096053  0.27136482  0.87122844     0.04300
H434        H  0.29263070  0.35687381  0.84539123     0.04300
C435        C  0.21398428  0.01799106  0.83775771     0.02300
C436        C  0.19029606  0.48037132  0.83863239     0.02300
C437        C  0.16835531  0.46647847  0.86173441    -0.18300
C438        C  0.16456734  0.48762365  0.88141955     0.02300
C439        C  0.18700407  0.02466698  0.88008185     0.02300
C440        C  0.21245267  0.03879220  0.85921506    -0.18300
H441        H  0.22945849  0.06699885  0.85846407     0.04300
H442        H  0.15142775  0.43837254  0.86344053     0.04300
C443        C  0.20925338  0.01646554  0.66450069     0.02300
C444        C  0.18082143  0.48079479  0.66736360     0.02300
C445        C  0.15563023  0.46522793  0.64631469    -0.18300
C446        C  0.15637580  0.48366617  0.62321096     0.02300
C447        C  0.18384932  0.01926548  0.62041197     0.02300
C448        C  0.21099925  0.03407858  0.64032752    -0.18300
H449        H  0.23229821  0.06095080  0.63801378     0.04300
H450        H  0.13486075  0.43797936  0.64791285     0.04300
C451        C  0.15360988  0.32636231  0.77419768     0.45500
H452        H  0.15023471  0.32344766  0.79623115    -0.03600
C453        C  0.15584264  0.33029627  0.72213689     0.45500
H454        H  0.15662989  0.33297320  0.69989119    -0.03600
C455        C  0.11823766  0.29803515  0.76060101    -0.17200
C456        C  0.16079320  0.36295316  0.76390961    -0.17000
C457        C  0.18481827  0.32076845  0.76223809    -0.17400
C458        C  0.11895403  0.29964314  0.73272967    -0.17400
C459        C  0.16150203  0.36465486  0.73606998    -0.16900
C460        C  0.18655422  0.32360969  0.73404673    -0.17200
C461        C  0.14883713  0.43927273  0.70576074    -0.01800
C462        C  0.17939414  0.45618209  0.68869431     0.07800
C463        C  0.20189801  0.44107155  0.68559688    -0.01900
C464        C  0.19713452  0.41270680  0.70164134    -0.02000
C465        C  0.16801989  0.39682705  0.72016735     0.08000
C466        C  0.14349863  0.41029719  0.72157803    -0.02100
Br467      Br  0.09914353  0.38654811  0.74168078    -0.00700
Br468      Br  0.11021417  0.45104456  0.70382975    -0.00800
Br469      Br  0.23137847  0.39656740  0.69647734    -0.00700
Br470      Br  0.23393152  0.45364200  0.65481786    -0.00700
C471        C  0.14833298  0.42790948  0.80969319    -0.01800
C472        C  0.18425534  0.45420781  0.81612249     0.07800
C473        C  0.21237109  0.44957284  0.80494760    -0.01900
C474        C  0.20456567  0.42351020  0.78501941    -0.02000
C475        C  0.16919804  0.39429769  0.78238664     0.08000
C476        C  0.14194945  0.39606272  0.79768462    -0.02100
Br477      Br  0.09780165  0.35507467  0.80644011    -0.00700
Br478      Br  0.10721535  0.43472763  0.81686543    -0.00800
Br479      Br  0.24360418  0.42946253  0.76263083    -0.00700
Br480      Br  0.25961059  0.47060767  0.82112839    -0.00700
C481        C  0.21195207  0.32030648  0.80890094    -0.01800
C482        C  0.20899923  0.31249784  0.78072391     0.07800
C483        C  0.22872421  0.29537155  0.77189147    -0.01900
C484        C  0.25775767  0.29802090  0.78807939    -0.02000
C485        C  0.25554631  0.30034552  0.81635157     0.08000
C486        C  0.22744813  0.30577296  0.82597834    -0.02100
Br487      Br  0.20652095  0.28919789  0.86070802    -0.00700
Br488      Br  0.20772163  0.35823683  0.82507510    -0.00800
Br489      Br  0.30027732  0.30185208  0.77094533    -0.00700
Br490      Br  0.21112014  0.25954841  0.74442481    -0.00700
C491        C  0.06302622  0.21915680  0.80653838    -0.01800
C492        C  0.03626731  0.22649595  0.81690174     0.07800
C493        C  0.03423349  0.25516717  0.80575659    -0.01900
C494        C  0.05590488  0.27289138  0.78309535    -0.02000
C495        C  0.08768369  0.27065442  0.77752424     0.08000
C496        C  0.09174821  0.24445050  0.79139450    -0.02100
Br497      Br  0.13683216  0.24391358  0.79436929    -0.00700
Br498      Br  0.06178600  0.17506793  0.81355476    -0.00800
Br499      Br  0.04133877  0.29926334  0.76015965    -0.00700
Br500      Br  0.00869243  0.27508338  0.82452869    -0.00700
C501        C  0.20567783  0.30226723  0.69135696    -0.01800
C502        C  0.21549771  0.32240427  0.71587504     0.07800
C503        C  0.25360762  0.34249198  0.72183330    -0.01900
C504        C  0.27974088  0.34160077  0.70452990    -0.02000
C505        C  0.26924647  0.31802346  0.68265329     0.08000
C506        C  0.23219283  0.29993136  0.67534115    -0.02100
Br507      Br  0.21808189  0.27508467  0.64115023    -0.00700
Br508      Br  0.15638903  0.27656010  0.67827606    -0.00800
Br509      Br  0.32977114  0.37804264  0.70747537    -0.00700
Br510      Br  0.27273376  0.37450181  0.75196901    -0.00700
C511        C  0.04041011  0.25659333  0.67976785    -0.01800
C512        C  0.02980685  0.22071923  0.68190741     0.07800
C513        C  0.05022071  0.21128872  0.69937161    -0.01900
C514        C  0.07937588  0.23678219  0.71505829    -0.02000
C515        C  0.08854226  0.27260257  0.71457132     0.08000
C516        C  0.06956677  0.28222066  0.69562951    -0.02100
Br517      Br  0.08547337  0.33061380  0.68865028    -0.00700
Br518      Br  0.01720245  0.27107687  0.65300162    -0.00800
Br519      Br  0.11162251  0.22289416  0.73155484    -0.00700
Br520      Br  0.04104029  0.16347487  0.69948803    -0.00700
C521        C  0.42735228  0.34686852  0.91346075    -0.01800
C522        C  0.42019226  0.35426610  0.93981927     0.07800
C523        C  0.38487474  0.34756375  0.94629756    -0.01900
C524        C  0.35654616  0.33099853  0.92735245    -0.02000
C525        C  0.36428627  0.32773721  0.90019377     0.08000
C526        C  0.39970757  0.33450393  0.89346599    -0.02100
Br527      Br  0.41056751  0.32697155  0.85698362    -0.00700
Br528      Br  0.47581129  0.35665779  0.90415738    -0.00800
Br529      Br  0.30705343  0.30853885  0.93949165    -0.00700
Br530      Br  0.37514043  0.36299649  0.98026929    -0.00700
C531        C  0.13824446  0.44978800  0.92246007    -0.01800
C532        C  0.13523380  0.47046958  0.90189730     0.07800
C533        C  0.10313873  0.47293441  0.89988373    -0.01900
C534        C  0.07631773  0.45854002  0.91996693    -0.02000
C535        C  0.07987760  0.43891915  0.94129204     0.08000
C536        C  0.11098338  0.43438602  0.94220004    -0.02100
Br537      Br  0.11795772  0.40867625  0.97112091    -0.00700
Br538      Br  0.17886791  0.44084419  0.92277683    -0.00800
Br539      Br  0.03397832  0.46471005  0.91701846    -0.00700
Br540      Br  0.09313518  0.49142354  0.86765065    -0.00700
C541        C  0.07457443  0.45900324  0.57814331    -0.01800
C542        C  0.07528354  0.43316437  0.56084060     0.07800
C543        C  0.10089739  0.42165580  0.56634822    -0.01900
C544        C  0.12665097  0.43743608  0.58732224    -0.02000
C545        C  0.12732908  0.46488632  0.60278858     0.08000
C546        C  0.09986670  0.47384064  0.59937447    -0.02100
Br547      Br  0.09573598  0.00504731  0.62529863    -0.00700
Br548      Br  0.03951916  0.97526797  0.57423077    -0.00800
Br549      Br  0.16199546  0.42212100  0.59435737    -0.00700
Br550      Br  0.10282668  0.38538043  0.54515942    -0.00700
C551        C  0.36396957  0.31319456  0.57756013    -0.01800
C552        C  0.37563398  0.32815187  0.60343986     0.07800
C553        C  0.41319191  0.34797558  0.60886050    -0.01900
C554        C  0.43793271  0.35906921  0.58728662    -0.02000
C555        C  0.42526596  0.34923896  0.56049136     0.08000
C556        C  0.38881387  0.32362026  0.55608645    -0.02100
Br557      Br  0.37347687  0.30134702  0.52125558    -0.00700
Br558      Br  0.31488029  0.27606214  0.57244072    -0.00800
Br559      Br  0.48921952  0.38537923  0.59466676    -0.00700
Br560      Br  0.43082480  0.35823432  0.64570246    -0.00700
C561        C  0.42234557  0.09690512  0.55531667    -0.01800
C562        C  0.41883830  0.06373003  0.56031833     0.07800
C563        C  0.42240484  0.05458474  0.58692513    -0.01900
C564        C  0.43626464  0.08037393  0.60721219    -0.02000
C565        C  0.44777767  0.11540710  0.60042474     0.08000
C566        C  0.43761844  0.12309284  0.57529335    -0.02100
Br567      Br  0.44130338  0.16817191  0.56932395    -0.00700
Br568      Br  0.40327334  0.10548591  0.52241051    -0.00800
Br569      Br  0.93647389  0.06749602  0.64436584    -0.00700
Br570      Br  0.40364995  0.00634753  0.59623531    -0.00700
C571        C  0.45893679  0.10952360  0.95056906    -0.01800
C572        C  0.43371592  0.07503450  0.94303232     0.07800
C573        C  0.42332039  0.06699667  0.91570331    -0.01900
C574        C  0.43960170  0.09306011  0.89586602    -0.02000
C575        C  0.46364213  0.12819987  0.90372948     0.08000
C576        C  0.47026370  0.13636840  0.93150831    -0.02100
Br577      Br  0.98890783  0.18400238  0.94373322    -0.00700
Br578      Br  0.48103132  0.12001088  0.98601925    -0.00800
Br579      Br  0.42937572  0.07961452  0.85818382    -0.00700
Br580      Br  0.38869454  0.01963651  0.90528369    -0.00700
C581        C  0.32607567  0.40179946  0.92956395    -0.01800
C582        C  0.36360964  0.42638294  0.93198332     0.07800
C583        C  0.38729787  0.42815698  0.91108177    -0.01900
C584        C  0.37403444  0.40373916  0.88949778    -0.02000
C585        C  0.33736821  0.37722953  0.88875834     0.08000
C586        C  0.31317099  0.37827115  0.90772857    -0.02100
Br587      Br  0.26197763  0.34631999  0.90512990    -0.00700
Br588      Br  0.29112815  0.39733881  0.95678917    -0.00800
Br589      Br  0.40538514  0.40743175  0.86006005    -0.00700
Br590      Br  0.43747357  0.46454341  0.91095568    -0.00700
C591        C  0.32520367  0.38606980  0.55455727    -0.01800
C592        C  0.36051758  0.41536950  0.55346644     0.07800
C593        C  0.38526964  0.42060797  0.57487609    -0.01900
C594        C  0.37301179  0.40063184  0.59845784    -0.02000
C595        C  0.33883756  0.37041528  0.59891821     0.06100
C596        C  0.31470893  0.36326655  0.57692775    -0.02100
Br597      Br  0.26689515  0.32287758  0.57772500    -0.00700
Br598      Br  0.29235926  0.37457420  0.52429341    -0.00800
Br599      Br  0.40126543  0.41732384  0.63131189    -0.00700
Br600      Br  0.43683720  0.45273489  0.57231267    -0.00700
C601        C  0.06137958  0.16978949  0.55640943    -0.01800
C602        C  0.06730706  0.14091180  0.55963907     0.07800
C603        C  0.05516364  0.12072201  0.58334593    -0.01900
C604        C  0.03758266  0.12949389  0.60359124    -0.02000
C605        C  0.02912434  0.15658531  0.59943540     0.08000
C606        C  0.04248412  0.17766940  0.57627349    -0.02100
Br607      Br  0.03674879  0.21855207  0.57246457    -0.00700
Br608      Br  0.07706731  0.19736990  0.52405889    -0.00800
Br609      Br  0.02884526  0.10685214  0.63813902    -0.00700
Br610      Br  0.06279348  0.08103020  0.58843838    -0.00700
C611        C  0.08661150  0.18510508  0.93812875    -0.01800
C612        C  0.07820564  0.14957292  0.94026226     0.07800
C613        C  0.05611683  0.12543631  0.91996093    -0.01900
C614        C  0.04189741  0.13652662  0.89890546    -0.02000
C615        C  0.04436991  0.16968504  0.90000606     0.08000
C616        C  0.06861879  0.19478592  0.91865272    -0.02100
Br617      Br  0.07672408  0.24226565  0.91806881    -0.00700
Br618      Br  0.12194758  0.22111820  0.96161153    -0.00800
Br619      Br  0.52269690  0.10729584  0.86678777    -0.00700
Br620      Br  0.54381324  0.07613374  0.91998156    -0.00700
C621        C  0.15780121  0.08595159  0.91334658    -0.01800
C622        C  0.16617486  0.08387771  0.94061256     0.07800
C623        C  0.18908780  0.06988202  0.94680959    -0.01900
C624        C  0.19685878  0.05133618  0.92690776    -0.02000
C625        C  0.18354002  0.04857980  0.90024690     0.08000
C626        C  0.16728845  0.06915680  0.89308122    -0.02100
Br627      Br  0.15967880  0.07638177  0.85578156    -0.00700
Br628      Br  0.13657143  0.11467828  0.90367519    -0.00800
Br629      Br  0.22810506  0.03217381  0.93565454    -0.00700
Br630      Br  0.21284519  0.07960910  0.98156048    -0.00700
C631        C  0.17722092  0.03077844  0.57151882    -0.01800
C632        C  0.18172844  0.04199921  0.59864893     0.07800
C633        C  0.17815049  0.07184293  0.60515194    -0.01900
C634        C  0.16674979  0.08739658  0.58516405    -0.02000
C635        C  0.15635207  0.07185273  0.55929444     0.08000
C636        C  0.16036382  0.04250112  0.55294795    -0.02100
Br637      Br  0.13988335  0.01564687  0.52025160    -0.00700
Br638      Br  0.19800290  0.50269680  0.55908499    -0.00800
Br639      Br  0.16141662  0.12764649  0.59429358    -0.00700
Br640      Br  0.18684979  0.09125159  0.64132436    -0.00700
C641        C  0.33601722  0.28398292  0.70941171    -0.01800
C642        C  0.31058464  0.27407243  0.68793180     0.07800
C643        C  0.28862735  0.23808650  0.68233882    -0.01900
C644        C  0.29167375  0.21261595  0.69794652    -0.02000
C645        C  0.31493677  0.22229958  0.72097861     0.08000
C646        C  0.33746553  0.25857374  0.72622626    -0.02100
Br647      Br  0.37641612  0.27430624  0.75238910    -0.00700
Br648      Br  0.37365961  0.33205534  0.71295654    -0.00800
Br649      Br  0.26625047  0.16513692  0.68508444    -0.00700
Br650      Br  0.25785212  0.22360271  0.65053707    -0.00700
C651        C  0.32468335  0.22524255  0.80951091    -0.01800
C652        C  0.30531186  0.21401838  0.78483202     0.07800
C653        C  0.27191753  0.21501247  0.78349541    -0.01900
C654        C  0.26222918  0.23089782  0.80504272    -0.02000
C655        C  0.28596047  0.24555927  0.82750668     0.08000
C656        C  0.30937742  0.23203815  0.83153887    -0.02100
Br657      Br  0.30260309  0.20345617  0.86274773    -0.00700
Br658      Br  0.37440733  0.23874684  0.81486299    -0.00800
Br659      Br  0.21197590  0.21790886  0.80993339    -0.00700
Br660      Br  0.23874335  0.19430314  0.75376277    -0.00700
C661        C  0.42845895  0.19785820  0.78263943    -0.01800
C662        C  0.39202265  0.17935476  0.78984346     0.07800
C663        C  0.38657099  0.17319335  0.81867461    -0.01900
C664        C  0.41737317  0.18698070  0.83599971    -0.02000
C665        C  0.45061678  0.19165062  0.82566877     0.08000
C666        C  0.45324863  0.19156564  0.79757549    -0.02100
Br667      Br  0.46878139  0.16032735  0.78278616    -0.00700
Br668      Br  0.44307252  0.24629469  0.77578935    -0.00800
Br669      Br  0.41383696  0.19913035  0.87312658    -0.00700
Br670      Br  0.34186473  0.14433775  0.83756114    -0.00700
C671        C  0.40435777  0.20315017  0.69592975    -0.01800
C672        C  0.40111443  0.18802632  0.72211967     0.07800
C673        C  0.42730205  0.17706715  0.72727501    -0.01900
C674        C  0.43678488  0.16238578  0.70583525    -0.02000
C675        C  0.44302402  0.17896496  0.68063658     0.08000
C676        C  0.42512299  0.19849649  0.67531218    -0.02100
Br677      Br  0.42457844  0.21430507  0.63901275    -0.00700
Br678      Br  0.38677179  0.23524289  0.68872238    -0.00800
Br679      Br  0.44792710  0.12562242  0.71279072    -0.00700
Br680      Br  0.47654406  0.21532718  0.73325116    -0.00700
C681        C  0.24089310  0.08825796  0.78816074    -0.01800
C682        C  0.27658797  0.09787147  0.78048166     0.07800
C683        C  0.29226227  0.07870307  0.79189057    -0.01900
C684        C  0.27319046  0.05387583  0.81227217    -0.02000
C685        C  0.23475756  0.03858278  0.81373609     0.08000
C686        C  0.21865983  0.05480364  0.79869956    -0.02100
Br687      Br  0.16678934  0.03527423  0.79711030    -0.00700
Br688      Br  0.22913736  0.12403669  0.79827337    -0.00800
Br689      Br  0.30112432  0.05115941  0.84232684    -0.00700
Br690      Br  0.34071179  0.08895530  0.78258202    -0.00700
C691        C  0.21698606  0.05495176  0.70381689    -0.01800
C692        C  0.23231642  0.03955246  0.68704832     0.07800
C693        C  0.27067444  0.05544065  0.68592780    -0.01900
C694        C  0.29293462  0.08448209  0.70265600    -0.02000
C695        C  0.27753705  0.10028295  0.71900710     0.08000
C696        C  0.23926116  0.08568802  0.71857905    -0.02100
Br697      Br  0.21638514  0.11054803  0.73342249    -0.00700
Br698      Br  0.16525869  0.03791024  0.70303279    -0.00800
Br699      Br  0.34465447  0.10302651  0.70206763    -0.00700
Br700      Br  0.29336104  0.04069080  0.65903336    -0.00700
C701        C  0.32438447  0.66563751  0.27807182     0.45500
H702        H  0.31954795  0.66451744  0.29930612    -0.03600
C703        C  0.32999956  0.66889022  0.22626415     0.45500
H704        H  0.33158557  0.66931074  0.20398435    -0.03600
C705        C  0.29895641  0.63067010  0.26446371    -0.17200
C706        C  0.31557555  0.69316629  0.26595671    -0.17000
C707        C  0.36337516  0.67492709  0.26892299    -0.17400
C708        C  0.30129523  0.63195587  0.23686146    -0.17400
C709        C  0.31870451  0.69535683  0.23819551    -0.16900
C710        C  0.36721364  0.67811660  0.24041055    -0.17200
O711        O  0.12541353  0.65793596  0.47326179    -0.72900
O712        O  0.16134908  0.61893936  0.03162502    -0.73900
O713        O  0.16850530  0.62448041  0.47485837    -0.62500
O714        O  0.11733261  0.65239464  0.03113923    -0.70900
O715        O  0.06883279  0.59970288  0.02837874    -0.70500
O716        O  0.11772670  0.57374703  0.47013298    -0.61700
O717        O  0.11248898  0.56673017  0.02678088    -0.74300
O718        O  0.07472332  0.60722376  0.47135202    -0.73000
Cu719      Cu  0.14519748  0.64069084  0.50314593     1.04600
Cu720      Cu  0.09183194  0.58567551  0.49911117     1.04300
C721        C  0.09424038  0.63822831  0.46263021     0.93300
C722        C  0.14310961  0.58666478  0.03803437     0.92400
C723        C  0.15053223  0.59460145  0.46332834     0.84600
C724        C  0.08524283  0.63033981  0.03880919     0.90800
O725        O  0.40439977  0.95614587  0.02316709    -0.72900
O726        O  0.43999048  0.53687369  0.47219009    -0.73900
O727        O  0.43424976  0.52942322  0.02974358    -0.62500
O728        O  0.40708535  0.96292162  0.46589182    -0.70900
O729        O  0.35380912  0.96099348  0.46533280    -0.70500
O730        O  0.37924478  0.52442387  0.02776942    -0.61700
O731        O  0.38571592  0.53358000  0.47062281    -0.74300
O732        O  0.34971428  0.95134288  0.02301150    -0.73000
Cu733      Cu  0.42281522  0.99683870  0.49771874     1.04600
Cu734      Cu  0.36456106  0.99249872  0.49657985     1.04300
C735        C  0.37202758  0.94161449  0.03194986     0.93300
C736        C  0.41887959  0.54764853  0.46311633     0.92400
C737        C  0.41065956  0.53749046  0.03849496     0.84600
C738        C  0.37537329  0.95142299  0.45548205     0.90800
O739        O  0.03615296  0.93617139  0.02754627    -0.72900
O740        O  0.45755691  0.89836136  0.47164216    -0.73900
O741        O  0.45994492  0.89501081  0.02970599    -0.62500
O742        O  0.03552336  0.93954302  0.47145858    -0.70900
O743        O  0.04079857  0.89171942  0.46990357    -0.70500
O744        O  0.46335171  0.84611491  0.02634105    -0.61700
O745        O  0.46316343  0.85061916  0.46844093    -0.74300
O746        O  0.03999289  0.88778320  0.02768021    -0.73000
Cu747      Cu  0.49653541  0.91904567  0.50002836     1.04600
Cu748      Cu  0.50215254  0.86734984  0.99803638     1.04300
C749        C  0.04976121  0.91827201  0.03734479     0.93300
C750        C  0.44808976  0.86853527  0.46098903     0.92400
C751        C  0.45043851  0.86389807  0.03763668     0.84600
C752        C  0.05075175  0.92278674  0.46186741     0.90800
C753        C  0.46684372  0.67519737  0.16065661     0.02300
C754        C  0.00634266  0.69484464  0.16098835     0.02300
C755        C  0.02518529  0.68849742  0.14019663    -0.18300
C756        C  0.00703560  0.66292933  0.12028475     0.02300
C757        C  0.46797032  0.64296823  0.12066448     0.02300
C758        C  0.44884545  0.64989302  0.14051519    -0.18300
H759        H  0.41939854  0.63477293  0.14058475     0.04300
H760        H  0.05465207  0.70290800  0.14005335     0.04300
C761        C  0.29757691  0.81955162  0.16384667     0.02300
C762        C  0.31623537  0.79973531  0.16640579     0.02300
C763        C  0.34156123  0.80317754  0.14653459    -0.18300
C764        C  0.34926289  0.82571195  0.12461404     0.02300
C765        C  0.33115334  0.84560006  0.12220220     0.02300
C766        C  0.30580149  0.84238381  0.14177276    -0.18300
H767        H  0.29228581  0.85795148  0.13982152     0.04300
H768        H  0.35542958  0.78788429  0.14810688     0.04300
C769        C  0.47737547  0.68814005  0.34400401     0.02300
C770        C  0.01596058  0.70677101  0.34152836     0.02300
C771        C  0.03701712  0.70272702  0.36202960    -0.18300
C772        C  0.02150737  0.67743562  0.38218703     0.02300
C773        C  0.48333534  0.65691261  0.38324238     0.02300
C774        C  0.46223087  0.66290812  0.36451701    -0.18300
H775        H  0.43303362  0.64665502  0.36569490     0.04300
H776        H  0.06640411  0.71738906  0.36084886     0.04300
C777        C  0.29415235  0.77892628  0.34356520     0.02300
C778        C  0.28396521  0.80485324  0.33641581     0.02300
C779        C  0.29970035  0.83710546  0.35091416    -0.18300
C780        C  0.32416207  0.84449673  0.37246420     0.02300
C781        C  0.33454861  0.81955336  0.37954656     0.02300
C782        C  0.31924960  0.78773319  0.36562592    -0.18300
H783        H  0.32890045  0.77036921  0.37228245     0.04300
H784        H  0.29188757  0.85664508  0.34585816     0.04300
C785        C  0.21448573  0.51822943  0.33826832     0.02300
C786        C  0.19117654  0.98086450  0.33897057     0.02300
C787        C  0.16910671  0.96691815  0.36202487    -0.18300
C788        C  0.16538146  0.98802922  0.38179736     0.02300
C789        C  0.18780718  0.52469419  0.38084331     0.02300
C790        C  0.21317301  0.53889347  0.35991431    -0.18300
H791        H  0.23028305  0.56709074  0.35926892     0.04300
H792        H  0.15201707  0.93882195  0.36361059     0.04300
C793        C  0.20947536  0.51721432  0.16435549     0.02300
C794        C  0.18111658  0.98146639  0.16737215     0.02300
C795        C  0.15608852  0.96568450  0.14622668    -0.18300
C796        C  0.15677782  0.98400387  0.12304671     0.02300
C797        C  0.18421472  0.51982991  0.12022350     0.02300
C798        C  0.21108767  0.53484214  0.14025340    -0.18300
H799        H  0.23208123  0.56186650  0.13803305     0.04300
H800        H  0.13549843  0.93837112  0.14781156     0.04300
C801        C  0.15400959  0.82711091  0.27425875     0.45500
H802        H  0.15085816  0.82438743  0.29632835    -0.03600
C803        C  0.15593651  0.83067475  0.22216885     0.45500
H804        H  0.15655236  0.83314094  0.19990543    -0.03600
C805        C  0.11852108  0.79874198  0.26083472    -0.17200
C806        C  0.16126908  0.86366931  0.26384868    -0.17000
C807        C  0.18505303  0.82134132  0.26223144    -0.17400
C808        C  0.11910108  0.80011545  0.23295768    -0.17400
C809        C  0.16177551  0.86518381  0.23599048    -0.16900
C810        C  0.18668043  0.82402470  0.23405330    -0.17200
C811        C  0.14911729  0.93983634  0.20572720    -0.01800
C812        C  0.17979450  0.95695398  0.18879062     0.07800
C813        C  0.20257197  0.94210347  0.18586124    -0.01900
C814        C  0.19740552  0.91327184  0.20151917    -0.02000
C815        C  0.16825522  0.89731538  0.22001878     0.08000
C816        C  0.14383982  0.91089167  0.22156486    -0.02100
Br817      Br  0.09976319  0.88740491  0.24203150    -0.00700
Br818      Br  0.11036206  0.95140919  0.20369838    -0.00800
Br819      Br  0.23100536  0.89645279  0.19579776    -0.00700
Br820      Br  0.23609689  0.95618447  0.15595616    -0.00700
C821        C  0.14914864  0.92858544  0.30990677    -0.01800
C822        C  0.18507781  0.95484295  0.31631162     0.07800
C823        C  0.21313150  0.95029836  0.30486959    -0.01900
C824        C  0.20518416  0.92441544  0.28473888    -0.02000
C825        C  0.16983383  0.89510654  0.28227993     0.08000
C826        C  0.14275463  0.89676256  0.29787620    -0.02100
Br827      Br  0.09906266  0.85569308  0.30723796    -0.00700
Br828      Br  0.10804267  0.93541073  0.31710621    -0.00800
Br829      Br  0.24401415  0.93072519  0.26192851    -0.00700
Br830      Br  0.26034047  0.97082121  0.32105110    -0.00700
C831        C  0.21212603  0.82106254  0.30880628    -0.01800
C832        C  0.20922787  0.81311841  0.28069101     0.07800
C833        C  0.22886599  0.79585872  0.27198144    -0.01900
C834        C  0.25762502  0.79827162  0.28836013    -0.02000
C835        C  0.25500424  0.80036535  0.31661130     0.08000
C836        C  0.22702688  0.80613870  0.32601950    -0.02100
Br837      Br  0.20553974  0.78976892  0.36061323    -0.00700
Br838      Br  0.20912091  0.85985729  0.32455193    -0.00800
Br839      Br  0.30041306  0.80235598  0.27151442    -0.00700
Br840      Br  0.21127447  0.75995169  0.24459727    -0.00700
C841        C  0.06313482  0.71941585  0.30627932    -0.01800
C842        C  0.03661052  0.72681719  0.31700112     0.07800
C843        C  0.03477403  0.75578898  0.30631238    -0.01900
C844        C  0.05639410  0.77375296  0.28369633    -0.02000
C845        C  0.08806320  0.77141686  0.27786093     0.08000
C846        C  0.09200821  0.74496988  0.29144246    -0.02100
Br847      Br  0.13714648  0.74463851  0.29484283    -0.00700
Br848      Br  0.06142737  0.67496955  0.31247433    -0.00800
Br849      Br  0.04183977  0.80047898  0.26117731    -0.00700
Br850      Br  0.00952604  0.77559997  0.32561970    -0.00700
C851        C  0.20587921  0.80237806  0.19158258    -0.01800
C852        C  0.21564380  0.82277586  0.21595538     0.07800
C853        C  0.25372963  0.84298927  0.22192172    -0.01900
C854        C  0.27992179  0.84199206  0.20475529    -0.02000
C855        C  0.26951034  0.81816918  0.18304486     0.08000
C856        C  0.23244564  0.79985668  0.17575498    -0.02100
Br857      Br  0.21836484  0.77437906  0.14185343    -0.00700
Br858      Br  0.15659755  0.77661118  0.17849791    -0.00800
Br859      Br  0.32993661  0.87848437  0.20770663    -0.00700
Br860      Br  0.27270635  0.87524081  0.25191605    -0.00700
C861        C  0.04037239  0.75647540  0.18023049    -0.01800
C862        C  0.03009737  0.72067603  0.18234939     0.07800
C863        C  0.05071419  0.71146295  0.19978876    -0.01900
C864        C  0.07976792  0.73710725  0.21546439    -0.02000
C865        C  0.08865198  0.77285872  0.21495543     0.08000
C866        C  0.06939464  0.78224247  0.19610368    -0.02100
Br867      Br  0.08469694  0.83055945  0.18933695    -0.00700
Br868      Br  0.01694429  0.77069112  0.15344837    -0.00800
Br869      Br  0.11219107  0.72350428  0.23203916    -0.00700
Br870      Br  0.04201020  0.66378834  0.19985766    -0.00700
C871        C  0.42582337  0.84639831  0.41395876    -0.01800
C872        C  0.41898938  0.85442550  0.44020329     0.07800
C873        C  0.38377095  0.84790843  0.44680844    -0.01900
C874        C  0.35519678  0.83080430  0.42814491    -0.02000
C875        C  0.36260521  0.82691478  0.40103415     0.08000
C876        C  0.39793706  0.83355025  0.39416920    -0.02100
Br877      Br  0.40842751  0.82541453  0.35773535    -0.00700
Br878      Br  0.47420471  0.85613153  0.40445683    -0.00800
Br879      Br  0.30587774  0.80857529  0.44063819    -0.00700
Br880      Br  0.37452165  0.86444593  0.48045248    -0.00700
C881        C  0.13823117  0.94960765  0.42249875    -0.01800
C882        C  0.13581570  0.97089348  0.40215813     0.07800
C883        C  0.10410797  0.97407273  0.40028055    -0.01900
C884        C  0.07704309  0.95955970  0.42020838    -0.02000
C885        C  0.08006309  0.93936247  0.44132752     0.08000
C886        C  0.11079885  0.93423622  0.44212479    -0.02100
Br887      Br  0.11704483  0.90770595  0.47077353    -0.00700
Br888      Br  0.17837296  0.93995529  0.42278557    -0.00800
Br889      Br  0.03507758  0.96632333  0.41731734    -0.00700
Br890      Br  0.09506601  0.99401742  0.36846491    -0.00700
C891        C  0.07534827  0.95923254  0.07752465    -0.01800
C892        C  0.07605558  0.93321659  0.06042974     0.07800
C893        C  0.10159926  0.92169307  0.06616954    -0.01900
C894        C  0.12728315  0.93760237  0.08718410    -0.02000
C895        C  0.12788306  0.96512445  0.10251501     0.08000
C896        C  0.10049119  0.97412816  0.09882987    -0.02100
Br897      Br  0.09624083  0.50564207  0.12451961    -0.00700
Br898      Br  0.04024737  0.47575906  0.07342975    -0.00800
Br899      Br  0.16250002  0.92222897  0.09454921    -0.00700
Br900      Br  0.10341151  0.88512714  0.04530211    -0.00700
C901        C  0.36420835  0.81298000  0.07827069    -0.01800
C902        C  0.37613852  0.82832377  0.10400346     0.07800
C903        C  0.41374041  0.84817644  0.10918103    -0.01900
C904        C  0.43825398  0.85893117  0.08746054    -0.02000
C905        C  0.42531906  0.84887430  0.06074064     0.08000
C906        C  0.38880721  0.82316070  0.05662667    -0.02100
Br907      Br  0.37305909  0.80030325  0.02204200    -0.00700
Br908      Br  0.31513389  0.77558136  0.07366958    -0.00800
Br909      Br  0.48961877  0.88482023  0.09456479    -0.00700
Br910      Br  0.43171686  0.85868815  0.14592179    -0.00700
C911        C  0.42262081  0.59583147  0.05571695    -0.01800
C912        C  0.41986574  0.56293290  0.06069641     0.07800
C913        C  0.42369839  0.55397857  0.08733249    -0.01900
C914        C  0.43669456  0.57970154  0.10771265    -0.02000
C915        C  0.44729495  0.61456700  0.10101162     0.08000
C916        C  0.43699624  0.62193779  0.07582021    -0.02100
Br917      Br  0.43927435  0.66643701  0.06992698    -0.00700
Br918      Br  0.40427275  0.60432969  0.02241129    -0.00800
Br919      Br  0.93507024  0.56717146  0.14484170    -0.00700
Br920      Br  0.40682377  0.50601003  0.09655024    -0.00700
C921        C  0.45804371  0.61030817  0.45073967    -0.01800
C922        C  0.43304339  0.57581922  0.44300452     0.07800
C923        C  0.42341584  0.56779951  0.41556595    -0.01900
C924        C  0.44038773  0.59381272  0.39580928    -0.02000
C925        C  0.46443697  0.62889623  0.40378456     0.08000
C926        C  0.47033517  0.63713437  0.43158998    -0.02100
Br927      Br  0.99111724  0.68393176  0.44458916    -0.00700
Br928      Br  0.47820343  0.62082837  0.48679877    -0.00800
Br929      Br  0.43095348  0.58039680  0.35806804    -0.00700
Br930      Br  0.38866448  0.52056367  0.40493997    -0.00700
C931        C  0.32470464  0.90209021  0.42967736    -0.01800
C932        C  0.36230477  0.92651162  0.43217375     0.07800
C933        C  0.38611273  0.92768537  0.41157684    -0.01900
C934        C  0.37284979  0.90304011  0.39015766    -0.02000
C935        C  0.33612729  0.87668522  0.38940013     0.08000
C936        C  0.31188010  0.87804456  0.40816250    -0.02100
Br937      Br  0.26075521  0.84563182  0.40584308    -0.00700
Br938      Br  0.28950250  0.89853029  0.45638371    -0.00800
Br939      Br  0.40438223  0.90610870  0.36103055    -0.00700
Br940      Br  0.43656016  0.96343796  0.41166982    -0.00700
C941        C  0.32626758  0.88592911  0.05512977    -0.01800
C942        C  0.36152775  0.91527812  0.05400323     0.07800
C943        C  0.38620485  0.92093497  0.07556369    -0.01900
C944        C  0.37392803  0.90112769  0.09922414    -0.02000
C945        C  0.33976592  0.87090139  0.09971330     0.06100
C946        C  0.31569457  0.86346945  0.07767427    -0.02100
Br947      Br  0.26783043  0.82313749  0.07865811    -0.00700
Br948      Br  0.29360340  0.87383645  0.02472657    -0.00800
Br949      Br  0.40213776  0.91794851  0.13209415    -0.00700
Br950      Br  0.43766042  0.95359265  0.07314994    -0.00700
C951        C  0.06087186  0.66879146  0.05684467    -0.01800
C952        C  0.06677750  0.63989157  0.06010168     0.07800
C953        C  0.05454077  0.61972429  0.08382070    -0.01900
C954        C  0.03690834  0.62852977  0.10403027    -0.02000
C955        C  0.02882491  0.65588901  0.09995941     0.08000
C956        C  0.04224673  0.67691734  0.07677853    -0.02100
Br957      Br  0.03697424  0.71807062  0.07302480    -0.00700
Br958      Br  0.07609599  0.69603573  0.02432438    -0.00800
Br959      Br  0.02740262  0.60541033  0.13841124    -0.00700
Br960      Br  0.06222872  0.58008897  0.08902112    -0.00700
C961        C  0.08856444  0.68593483  0.43761654    -0.01800
C962        C  0.08036307  0.65048064  0.43974143     0.07800
C963        C  0.05828111  0.62627047  0.41946363    -0.01900
C964        C  0.04354105  0.63713630  0.39860216    -0.02000
C965        C  0.04576815  0.67018307  0.39982026     0.08000
C966        C  0.07024269  0.69542608  0.41828594    -0.02100
Br967      Br  0.07809029  0.74281140  0.41771448    -0.00700
Br968      Br  0.12397100  0.72202923  0.46099358    -0.00800
Br969      Br  0.52388983  0.60835259  0.36658024    -0.00700
Br970      Br  0.54731146  0.57772038  0.41886048    -0.00700
C971        C  0.15983998  0.58677485  0.41433840    -0.01800
C972        C  0.16716735  0.58369378  0.44165463     0.07800
C973        C  0.18903916  0.56861201  0.44802568    -0.01900
C974        C  0.19694796  0.55030282  0.42801196    -0.02000
C975        C  0.18453886  0.54855670  0.40117550     0.08000
C976        C  0.16923823  0.56997398  0.39403981    -0.02100
Br977      Br  0.16251543  0.57815513  0.35678893    -0.00700
Br978      Br  0.13994180  0.61665449  0.40472317    -0.00800
Br979      Br  0.22733356  0.53022731  0.43687988    -0.00700
Br980      Br  0.21120946  0.57643611  0.48328706    -0.00700
C981        C  0.17916841  0.53183013  0.07123986    -0.01800
C982        C  0.18226624  0.54249569  0.09842753     0.07800
C983        C  0.17782899  0.57184095  0.10487203    -0.01900
C984        C  0.16687735  0.58744128  0.08465651    -0.02000
C985        C  0.15760908  0.57227273  0.05860823     0.08000
C986        C  0.16287908  0.54364145  0.05223378    -0.02100
Br987      Br  0.14505864  0.51800873  0.01874386    -0.00700
Br988      Br  0.19971812  0.00341351  0.05952938    -0.00800
Br989      Br  0.16085584  0.62734074  0.09360819    -0.00700
Br990      Br  0.18421396  0.59007042  0.14134877    -0.00700
C991        C  0.33590285  0.78401027  0.20981389    -0.01800
C992        C  0.31063355  0.77403265  0.18823323     0.07800
C993        C  0.28897597  0.73805935  0.18245022    -0.01900
C994        C  0.29201323  0.71263158  0.19809127    -0.02000
C995        C  0.31506253  0.72238252  0.22125043     0.08000
C996        C  0.33741641  0.75864478  0.22660038    -0.02100
Br997      Br  0.37631488  0.77446571  0.25282385    -0.00700
Br998      Br  0.37343794  0.83213105  0.21340983    -0.00800
Br999      Br  0.26690015  0.66516892  0.18509529    -0.00700
Br1000     Br  0.25883926  0.72358052  0.15030499    -0.00700
C1001       C  0.32456059  0.72552810  0.30973601    -0.01800
C1002       C  0.30522594  0.71415910  0.28505701     0.07800
C1003       C  0.27181827  0.71514166  0.28360742    -0.01900
C1004       C  0.26193859  0.73090417  0.30513481    -0.02000
C1005       C  0.28551035  0.74553646  0.32768201     0.08000
C1006       C  0.30914740  0.73225222  0.33173795    -0.02100
Br1007     Br  0.30180621  0.70297541  0.36260102    -0.00700
Br1008     Br  0.37414018  0.73858039  0.31530779    -0.00800
Br1009     Br  0.21167074  0.71800834  0.30977725    -0.00700
Br1010     Br  0.23887714  0.69464009  0.25371550    -0.00700
C1011       C  0.42870533  0.69838104  0.28296388    -0.01800
C1012       C  0.39224961  0.67961890  0.29011835     0.07800
C1013       C  0.38674843  0.67314926  0.31889799    -0.01900
C1014       C  0.41749791  0.68689453  0.33628472    -0.02000
C1015       C  0.45092638  0.69202417  0.32592585     0.08000
C1016       C  0.45363386  0.69222617  0.29783036    -0.02100
Br1017     Br  0.46962582  0.66145861  0.28280752    -0.00700
Br1018     Br  0.44307642  0.74677508  0.27621707    -0.00800
Br1019     Br  0.41357041  0.69830681  0.37356051    -0.00700
Br1020     Br  0.34195404  0.64405438  0.33758190    -0.00700
C1021       C  0.40454636  0.70346036  0.19622095    -0.01800
C1022       C  0.40138822  0.68846958  0.22245257     0.07800
C1023       C  0.42773809  0.67774759  0.22765422    -0.01900
C1024       C  0.43713580  0.66287519  0.20629641    -0.02000
C1025       C  0.44315870  0.67916724  0.18098829     0.08000
C1026       C  0.42523650  0.69867523  0.17560510    -0.02100
Br1027     Br  0.42460934  0.71431889  0.13927032    -0.00700
Br1028     Br  0.38706238  0.73563461  0.18900448    -0.00800
Br1029     Br  0.44829299  0.62616574  0.21343022    -0.00700
Br1030     Br  0.47683162  0.71637761  0.23338615    -0.00700
C1031       C  0.24106459  0.58866400  0.28864658    -0.01800
C1032       C  0.27662264  0.59806616  0.28067247     0.07800
C1033       C  0.29223943  0.57873613  0.29186189    -0.01900
C1034       C  0.27337630  0.55403513  0.31236973    -0.02000
C1035       C  0.23500297  0.53893534  0.31418175     0.08000
C1036       C  0.21883856  0.55531545  0.29940550    -0.02100
Br1037     Br  0.16697277  0.53602707  0.29828388    -0.00700
Br1038     Br  0.22939410  0.62460291  0.29841955    -0.00800
Br1039     Br  0.30164843  0.55145949  0.34223413    -0.00700
Br1040     Br  0.34050979  0.58878997  0.28217130    -0.00700
C1041       C  0.21735268  0.55518480  0.20406322    -0.01800
C1042       C  0.23274137  0.54031970  0.18680176     0.07800
C1043       C  0.27111694  0.55693583  0.18505897    -0.01900
C1044       C  0.29335510  0.58562399  0.20207267    -0.02000
C1045       C  0.27787968  0.60072985  0.21908029     0.08000
C1046       C  0.23958389  0.58590589  0.21885523    -0.02100
Br1047     Br  0.21666980  0.61076660  0.23363478    -0.00700
Br1048     Br  0.16554553  0.53767727  0.20377559    -0.00800
Br1049     Br  0.34511482  0.60468613  0.20085557    -0.00700
Br1050     Br  0.29376250  0.54420719  0.15668630    -0.00700
C1051       C  0.32409800  0.66494368  0.77774237     0.45500
H1052       H  0.31933461  0.66373374  0.79925352    -0.03600
C1053       C  0.32938204  0.66820627  0.72598163     0.45500
H1054       H  0.33078836  0.66856302  0.70365003    -0.03600
C1055       C  0.29863664  0.62997333  0.76425267    -0.17200
C1056       C  0.31520690  0.69247682  0.76578630    -0.17000
C1057       C  0.36301195  0.67424195  0.76853745    -0.17400
C1058       C  0.30076648  0.63125780  0.73663819    -0.17400
C1059       C  0.31818202  0.69472469  0.73799406    -0.16900
C1060       C  0.36670434  0.67745523  0.73998873    -0.17200
O1061       O  0.12390418  0.65720913  0.97334866    -0.72900
O1062       O  0.16150889  0.61925841  0.53234016    -0.73900
O1063       O  0.16752558  0.62431070  0.97414130    -0.62500
O1064       O  0.11826046  0.65346452  0.53111926    -0.70900
O1065       O  0.06934205  0.60108819  0.52801357    -0.70500
O1066       O  0.11689695  0.57345237  0.96945132    -0.61700
O1067       O  0.11215787  0.56743775  0.52740851    -0.74300
O1068       O  0.07335341  0.60638595  0.97171547    -0.73000
Cu1069     Cu  0.14428354  0.64010282  0.00281469     1.04600
Cu1070     Cu  0.09123621  0.58483613  0.99897137     1.04300
C1071       C  0.09258410  0.63744810  0.96299352     0.93300
C1072       C  0.14274416  0.58703441  0.53880488     0.92400
C1073       C  0.14958520  0.59449980  0.96249752     0.84600
C1074       C  0.08598417  0.63163994  0.53856585     0.90800
O1075       O  0.40362096  0.95674321  0.52304417    -0.72900
O1076       O  0.44096431  0.53627634  0.97237134    -0.73900
O1077       O  0.43323385  0.53016824  0.52941067    -0.62500
O1078       O  0.40823562  0.96253226  0.96596049    -0.70900
O1079       O  0.35493747  0.96060118  0.96538686    -0.70500
O1080       O  0.37824640  0.52522548  0.52742925    -0.61700
O1081       O  0.38662549  0.53283247  0.97087047    -0.74300
O1082       O  0.34886068  0.95175474  0.52298976    -0.73000
Cu1083     Cu  0.42387568  0.99634607  0.99790523     1.04600
Cu1084     Cu  0.36565637  0.99208297  0.99665977     1.04300
C1085       C  0.37127800  0.94210844  0.53187596     0.93300
C1086       C  0.41974770  0.54691237  0.96325476     0.92400
C1087       C  0.40969615  0.53833592  0.53809429     0.84600
C1088       C  0.37655023  0.95110233  0.95550600     0.90800
O1089       O  0.03604450  0.93685081  0.52789386    -0.72900
O1090       O  0.45821017  0.89817077  0.97168020    -0.73900
O1091       O  0.45927512  0.89483215  0.52955892    -0.62500
O1092       O  0.03500248  0.93890439  0.97118071    -0.70900
O1093       O  0.04103726  0.89149279  0.96968233    -0.70500
O1094       O  0.46329174  0.84624362  0.52622196    -0.61700
O1095       O  0.46387956  0.85046491  0.96844997    -0.74300
O1096       O  0.03971464  0.88836341  0.52791384    -0.73000
Cu1097     Cu  0.49719369  0.91886348  0.00006059     1.04600
Cu1098     Cu  0.50177036  0.86768659  0.49778229     1.04300
C1099       C  0.04948424  0.91879380  0.53768295     0.93300
C1100       C  0.44890443  0.86843674  0.96091518     0.92400
C1101       C  0.45007477  0.86378277  0.53747028     0.84600
C1102       C  0.05061508  0.92248087  0.96162992     0.90800
C1103       C  0.46694408  0.67557435  0.66017869     0.02300
C1104       C  0.00605656  0.69486256  0.66068177     0.02300
C1105       C  0.02500313  0.68881064  0.63982465    -0.18300
C1106       C  0.00700772  0.66329216  0.61986416     0.02300
C1107       C  0.46842154  0.64386584  0.62003501     0.02300
C1108       C  0.44912697  0.65064052  0.63980529    -0.18300
H1109       H  0.41967006  0.63560875  0.63966436     0.04300
H1110       H  0.05446676  0.70339770  0.63968260     0.04300
C1111       C  0.29781388  0.81983306  0.66385680     0.02300
C1112       C  0.31627052  0.79980239  0.66634204     0.02300
C1113       C  0.34127096  0.80298398  0.64627371    -0.18300
C1114       C  0.34881708  0.82540142  0.62425568     0.02300
C1115       C  0.33087743  0.84546096  0.62189931     0.02300
C1116       C  0.30591442  0.84257305  0.64170092    -0.18300
H1117       H  0.29251536  0.85825438  0.63982911     0.04300
H1118       H  0.35503151  0.78758695  0.64777045     0.04300
C1119       C  0.47699124  0.68722753  0.84350588     0.02300
C1120       C  0.01541638  0.70674851  0.84157429     0.02300
C1121       C  0.03626065  0.70272163  0.86226016    -0.18300
C1122       C  0.02052899  0.67734825  0.88235737     0.02300
C1123       C  0.48259814  0.65594411  0.88288757     0.02300
C1124       C  0.46164141  0.66189141  0.86397507    -0.18300
H1125       H  0.43242513  0.64568217  0.86504294     0.04300
H1126       H  0.06565845  0.71739274  0.86124301     0.04300
C1127       C  0.29546577  0.77939311  0.84293473     0.02300
C1128       C  0.28495802  0.80515842  0.83599547     0.02300
C1129       C  0.30076019  0.83744552  0.85047421    -0.18300
C1130       C  0.32557112  0.84500829  0.87183005     0.02300
C1131       C  0.33647020  0.82032868  0.87857146     0.02300
C1132       C  0.32136318  0.78861160  0.86450905    -0.18300
H1133       H  0.33158282  0.77156028  0.87081006     0.04300
H1134       H  0.29264742  0.85682398  0.84561852     0.04300
C1135       C  0.21371198  0.51766094  0.83790041     0.02300
C1136       C  0.19070148  0.98067219  0.83853886     0.02300
C1137       C  0.16878573  0.96679707  0.86166818    -0.18300
C1138       C  0.16473867  0.98793340  0.88123461     0.02300
C1139       C  0.18700068  0.52433448  0.88035092     0.02300
C1140       C  0.21237134  0.53845129  0.85943416    -0.18300
H1141       H  0.22944941  0.56664959  0.85870736     0.04300
H1142       H  0.15200353  0.93868405  0.86344814     0.04300
C1143       C  0.20905719  0.51620629  0.66445551     0.02300
C1144       C  0.18103305  0.98104302  0.66745632     0.02300
C1145       C  0.15579810  0.96544045  0.64644543    -0.18300
C1146       C  0.15650928  0.98380387  0.62331372     0.02300
C1147       C  0.18373018  0.51913658  0.62039968     0.02300
C1148       C  0.21084793  0.53388570  0.64032481    -0.18300
H1149       H  0.23213607  0.56077497  0.63806148     0.04300
H1150       H  0.13502791  0.93819567  0.64808499     0.04300
C1151       C  0.15372010  0.82651302  0.77421709     0.45500
H1152       H  0.15038098  0.82370369  0.79625744    -0.03600
C1153       C  0.15590075  0.83020639  0.72214250     0.45500
H1154       H  0.15665328  0.83273936  0.69988479    -0.03600
C1155       C  0.11830669  0.79813703  0.76068395    -0.17200
C1156       C  0.16096275  0.86309285  0.76380588    -0.17000
C1157       C  0.18488512  0.82081938  0.76229931    -0.17400
C1158       C  0.11901892  0.79960695  0.73280636    -0.17400
C1159       C  0.16161278  0.86464740  0.73595107    -0.16900
C1160       C  0.18662342  0.82360339  0.73412003    -0.17200
C1161       C  0.14914519  0.93947608  0.70584731    -0.01800
C1162       C  0.17965769  0.95637789  0.68873250     0.07800
C1163       C  0.20196329  0.94107827  0.68541396    -0.01900
C1164       C  0.19706035  0.91251988  0.70128575    -0.02000
C1165       C  0.16808369  0.89674621  0.71994799     0.08000
C1166       C  0.14370913  0.91036449  0.72152700    -0.02100
Br1167     Br  0.09936196  0.88658124  0.74164450    -0.00700
Br1168     Br  0.11067538  0.95146563  0.70416767    -0.00800
Br1169     Br  0.23094568  0.89601820  0.69572123    -0.00700
Br1170     Br  0.23395546  0.95378274  0.65459556    -0.00700
C1171       C  0.14865641  0.92804922  0.80974825    -0.01800
C1172       C  0.18459258  0.95446515  0.81601353     0.07800
C1173       C  0.21266746  0.94997449  0.80455979    -0.01900
C1174       C  0.20473960  0.92393611  0.78457471    -0.02000
C1175       C  0.16943467  0.89454306  0.78220390     0.08000
C1176       C  0.14229313  0.89621954  0.79771473    -0.02100
Br1177     Br  0.09828018  0.85518884  0.80662128    -0.00700
Br1178     Br  0.10746687  0.93467790  0.81715207    -0.00800
Br1179     Br  0.24350401  0.93035000  0.76164649    -0.00700
Br1180     Br  0.26007831  0.97105925  0.82043594    -0.00700
C1181       C  0.21208803  0.82043714  0.80893314    -0.01800
C1182       C  0.20909610  0.81257670  0.78077410     0.07800
C1183       C  0.22889976  0.79552650  0.77192881    -0.01900
C1184       C  0.25794742  0.79821256  0.78811684    -0.02000
C1185       C  0.25569490  0.80047882  0.81638712     0.08000
C1186       C  0.22761023  0.80593533  0.82601357    -0.02100
Br1187     Br  0.20668118  0.78939821  0.86073825    -0.00700
Br1188     Br  0.20794727  0.85845762  0.82503161    -0.00800
Br1189     Br  0.30046712  0.80199848  0.77100966    -0.00700
Br1190     Br  0.21136803  0.75968712  0.74447102    -0.00700
C1191       C  0.06289593  0.71919058  0.80653778    -0.01800
C1192       C  0.03625096  0.72662433  0.81700515     0.07800
C1193       C  0.03436366  0.75541877  0.80596649    -0.01900
C1194       C  0.05602194  0.77314209  0.78329544    -0.02000
C1195       C  0.08773930  0.77081597  0.77765648     0.08000
C1196       C  0.09170165  0.74451953  0.79146891    -0.02100
Br1197     Br  0.13678727  0.74400059  0.79457325    -0.00700
Br1198     Br  0.06139416  0.67494706  0.81331789    -0.00800
Br1199     Br  0.04146608  0.79956075  0.76041471    -0.00700
Br1200     Br  0.00907721  0.77547761  0.82490411    -0.00700
C1201       C  0.20604762  0.80245134  0.69153442    -0.01800
C1202       C  0.21569800  0.82255787  0.71604648     0.07800
C1203       C  0.25375620  0.84278263  0.72211149    -0.01900
C1204       C  0.28004390  0.84185070  0.70500026    -0.02000
C1205       C  0.26971330  0.81841218  0.68302972     0.08000
C1206       C  0.23271800  0.80039755  0.67553115    -0.02100
Br1207     Br  0.21889232  0.77611942  0.64110549    -0.00700
Br1208     Br  0.15674439  0.77626511  0.67855691    -0.00800
Br1209     Br  0.33014872  0.87796302  0.70842864    -0.00700
Br1210     Br  0.27251354  0.87499089  0.75215979    -0.00700
C1211       C  0.04045182  0.75646784  0.67989413    -0.01800
C1212       C  0.02978028  0.72058670  0.68210783     0.07800
C1213       C  0.05018405  0.71116302  0.69958930    -0.01900
C1214       C  0.07937118  0.73667821  0.71524543    -0.02000
C1215       C  0.08858457  0.77251373  0.71469421     0.08000
C1216       C  0.06963380  0.78211202  0.69571958    -0.02100
Br1217     Br  0.08563169  0.83049977  0.68862462    -0.00700
Br1218     Br  0.01737063  0.77094844  0.65302565    -0.00800
Br1219     Br  0.11156550  0.72276567  0.73179724    -0.00700
Br1220     Br  0.04096220  0.66333139  0.69974319    -0.00700
C1221       C  0.42742272  0.84697718  0.91360399    -0.01800
C1222       C  0.42013593  0.85452988  0.93987193     0.07800
C1223       C  0.38477512  0.84775384  0.94623808    -0.01900
C1224       C  0.35651910  0.83084814  0.92730920    -0.02000
C1225       C  0.36438720  0.82761718  0.90018084     0.08000
C1226       C  0.39987856  0.83453521  0.89353843    -0.02100
Br1227     Br  0.41097648  0.82711108  0.85710162    -0.00700
Br1228     Br  0.47588878  0.85657608  0.90453224    -0.00800
Br1229     Br  0.30704656  0.80774629  0.93947798    -0.00700
Br1230     Br  0.37486908  0.86356492  0.97996664    -0.00700
C1231       C  0.13829450  0.95010073  0.92229658    -0.01800
C1232       C  0.13533127  0.97075460  0.90168533     0.07800
C1233       C  0.10327094  0.97329042  0.89966684    -0.01900
C1234       C  0.07645362  0.95899304  0.91977916    -0.02000
C1235       C  0.07991903  0.93931103  0.94110376     0.08000
C1236       C  0.11102598  0.93477693  0.94204628    -0.02100
Br1237     Br  0.11803338  0.90923768  0.97109127    -0.00700
Br1238     Br  0.17886517  0.94108121  0.92269016    -0.00800
Br1239     Br  0.03431523  0.96547451  0.91692226    -0.00700
Br1240     Br  0.09330428  0.99171604  0.86737511    -0.00700
C1241       C  0.07494812  0.95935041  0.57810893    -0.01800
C1242       C  0.07561904  0.93343781  0.56086470     0.07800
C1243       C  0.10102544  0.92171826  0.56652129    -0.01900
C1244       C  0.12671817  0.93745136  0.58753199    -0.02000
C1245       C  0.12742765  0.96495102  0.60294885     0.08000
C1246       C  0.10005880  0.97400731  0.59945651    -0.02100
Br1247     Br  0.09558823  0.50489664  0.62522272    -0.00700
Br1248     Br  0.03875417  0.47445883  0.57454313    -0.00800
Br1249     Br  0.16203593  0.92211278  0.59460061    -0.00700
Br1250     Br  0.10278246  0.88524018  0.54548035    -0.00700
C1251       C  0.36375310  0.81276329  0.57786104    -0.01800
C1252       C  0.37565565  0.82797710  0.60364285     0.07800
C1253       C  0.41325486  0.84772878  0.60889277    -0.01900
C1254       C  0.43783171  0.85848549  0.58722599    -0.02000
C1255       C  0.42494158  0.84856325  0.56049594     0.08000
C1256       C  0.38841973  0.82297308  0.55626704    -0.02100
Br1257     Br  0.37276746  0.80036940  0.52157510    -0.00700
Br1258     Br  0.31463444  0.77553289  0.57308393    -0.00800
Br1259     Br  0.48921356  0.88439122  0.59436582    -0.00700
Br1260     Br  0.43115038  0.85829532  0.64564731    -0.00700
C1261       C  0.42200563  0.59679866  0.55531446    -0.01800
C1262       C  0.41903524  0.56380826  0.56024689     0.07800
C1263       C  0.42328898  0.55490726  0.58678188    -0.01900
C1264       C  0.43685422  0.58070802  0.60706577    -0.02000
C1265       C  0.44781400  0.61562850  0.60030449     0.08000
C1266       C  0.43730072  0.62308949  0.57522627    -0.02100
Br1267     Br  0.44069778  0.66804348  0.56920759    -0.00700
Br1268     Br  0.40240084  0.60505784  0.52254230    -0.00800
Br1269     Br  0.93546059  0.56719457  0.64431623    -0.00700
Br1270     Br  0.40611021  0.50689738  0.59603455    -0.00700
C1271       C  0.45861400  0.60950181  0.95046928    -0.01800
C1272       C  0.43365757  0.57492071  0.94296257     0.07800
C1273       C  0.42343552  0.56675769  0.91561337    -0.01900
C1274       C  0.43978472  0.59274119  0.89571852    -0.02000
C1275       C  0.46370258  0.62793992  0.90351724     0.08000
C1276       C  0.47003888  0.63624508  0.93129714    -0.02100
Br1277     Br  0.98959304  0.68409464  0.94435404    -0.00700
Br1278     Br  0.47997158  0.62029120  0.98615411    -0.00800
Br1279     Br  0.42975269  0.57910552  0.85805823    -0.00700
Br1280     Br  0.38875540  0.51938546  0.90527451    -0.00700
C1281       C  0.32604881  0.90163528  0.92975021    -0.01800
C1282       C  0.36354790  0.92637185  0.93208606     0.07800
C1283       C  0.38720863  0.92820628  0.91114223    -0.01900
C1284       C  0.37398106  0.90370826  0.88960506    -0.02000
C1285       C  0.33737808  0.87703547  0.88896497     0.08000
C1286       C  0.31319174  0.87791645  0.90802844    -0.02100
Br1287     Br  0.26209498  0.84545868  0.90572601    -0.00700
Br1288     Br  0.29107370  0.89734642  0.95688793    -0.00800
Br1289     Br  0.40530319  0.90747463  0.86012132    -0.00700
Br1290     Br  0.43726400  0.96485151  0.91086485    -0.00700
C1291       C  0.32579065  0.88612086  0.55488504    -0.01800
C1292       C  0.36092147  0.91565302  0.55385746     0.07800
C1293       C  0.38567025  0.92121231  0.57534902    -0.01900
C1294       C  0.37354205  0.90113377  0.59891021    -0.02000
C1295       C  0.33945499  0.87078967  0.59935881     0.06100
C1296       C  0.31535961  0.86344543  0.57731903    -0.02100
Br1297     Br  0.26762258  0.82297486  0.57813305    -0.00700
Br1298     Br  0.29319142  0.87412720  0.52441928    -0.00800
Br1299     Br  0.40185285  0.91777848  0.63174514    -0.00700
Br1300     Br  0.43706931  0.95409921  0.57293518    -0.00700
C1301       C  0.06178449  0.67016288  0.55674589    -0.01800
C1302       C  0.06759919  0.64119852  0.55987826     0.07800
C1303       C  0.05519220  0.62080175  0.58347393    -0.01900
C1304       C  0.03736784  0.62937636  0.60365786    -0.02000
C1305       C  0.02903237  0.65655964  0.59957811     0.08000
C1306       C  0.04269138  0.67787912  0.57655862    -0.02100
Br1307     Br  0.03701263  0.71880879  0.57285481    -0.00700
Br1308     Br  0.07792157  0.69812529  0.52460609    -0.00800
Br1309     Br  0.02800343  0.60624650  0.63803338    -0.00700
Br1310     Br  0.06283406  0.58110842  0.58852126    -0.00700
C1311       C  0.08695247  0.68531013  0.93813316    -0.01800
C1312       C  0.07837807  0.64973440  0.94033156     0.07800
C1313       C  0.05605137  0.62556328  0.92012259    -0.01900
C1314       C  0.04191964  0.63671338  0.89904730    -0.02000
C1315       C  0.04454500  0.66992635  0.90012456     0.08000
C1316       C  0.06891743  0.69502183  0.91871428    -0.02100
Br1317     Br  0.07707290  0.74251695  0.91815101    -0.00700
Br1318     Br  0.12254600  0.72133950  0.96146372    -0.00800
Br1319     Br  0.52305454  0.60743982  0.86667422    -0.00700
Br1320     Br  0.54451965  0.57632530  0.91968189    -0.00700
C1321       C  0.15753884  0.58545490  0.91342481    -0.01800
C1322       C  0.16619985  0.58375641  0.94067778     0.07800
C1323       C  0.18932037  0.57000911  0.94691877    -0.01900
C1324       C  0.19694728  0.55122477  0.92713366    -0.02000
C1325       C  0.18353816  0.54827305  0.90047481     0.08000
C1326       C  0.16714449  0.56869093  0.89322851    -0.02100
Br1327     Br  0.15952028  0.57576341  0.85589435    -0.00700
Br1328     Br  0.13566213  0.61358349  0.90364885    -0.00800
Br1329     Br  0.22798356  0.53189665  0.93607794    -0.00700
Br1330     Br  0.21355001  0.58042549  0.98151423    -0.00700
C1331       C  0.17749448  0.53097024  0.57155134    -0.01800
C1332       C  0.18170683  0.54197192  0.59871483     0.07800
C1333       C  0.17805829  0.57175293  0.60529649    -0.01900
C1334       C  0.16687670  0.58747967  0.58530735    -0.02000
C1335       C  0.15673111  0.57213289  0.55936349     0.08000
C1336       C  0.16083559  0.54284851  0.55294470    -0.02100
Br1337     Br  0.14065052  0.51622215  0.52011976    -0.00700
Br1338     Br  0.19763396  0.00244949  0.55899853    -0.00800
Br1339     Br  0.16146389  0.62766096  0.59451230    -0.00700
Br1340     Br  0.18629440  0.59078138  0.64157988    -0.00700
C1341       C  0.33602633  0.78374381  0.70969700    -0.01800
C1342       C  0.31063222  0.77401742  0.68820395     0.07800
C1343       C  0.28850963  0.73805895  0.68256867    -0.01900
C1344       C  0.29142954  0.71245300  0.69810168    -0.02000
C1345       C  0.31465860  0.72197120  0.72115181     0.08000
C1346       C  0.33728937  0.75820831  0.72647606    -0.02100
Br1347     Br  0.37612905  0.77369955  0.75271489    -0.00700
Br1348     Br  0.37386894  0.83172225  0.71330581    -0.00800
Br1349     Br  0.26588697  0.66502301  0.68512453    -0.00700
Br1350     Br  0.25759213  0.72378389  0.65085103    -0.00700
C1351       C  0.32413666  0.72440964  0.80977804    -0.01800
C1352       C  0.30498009  0.71344849  0.78499155     0.07800
C1353       C  0.27177909  0.71479570  0.78349894    -0.01900
C1354       C  0.26220893  0.73091061  0.80495027    -0.02000
C1355       C  0.28586361  0.74545137  0.82747040     0.08000
C1356       C  0.30886755  0.73149746  0.83168893    -0.02100
Br1357     Br  0.30202902  0.70337948  0.86320746    -0.00700
Br1358     Br  0.37379190  0.73773953  0.81529479    -0.00800
Br1359     Br  0.21199702  0.71812360  0.80976520    -0.00700
Br1360     Br  0.23856948  0.69406068  0.75378147    -0.00700
C1361       C  0.42837351  0.69759525  0.78244555    -0.01800
C1362       C  0.39195252  0.67891223  0.78967758     0.07800
C1363       C  0.38659661  0.67263907  0.81850451    -0.01900
C1364       C  0.41744211  0.68646966  0.83578615    -0.02000
C1365       C  0.45071133  0.69130110  0.82538953     0.08000
C1366       C  0.45334056  0.69143891  0.79728829    -0.02100
Br1367     Br  0.46966571  0.66095746  0.78220122    -0.00700
Br1368     Br  0.44261500  0.74600723  0.77587152    -0.00800
Br1369     Br  0.41395312  0.69846504  0.87297004    -0.00700
Br1370     Br  0.34195534  0.64378725  0.83745792    -0.00700
C1371       C  0.40394146  0.70293095  0.69572632    -0.01800
C1372       C  0.40081253  0.68784425  0.72193259     0.07800
C1373       C  0.42725238  0.67721384  0.72708690    -0.01900
C1374       C  0.43683734  0.66260119  0.70566385    -0.02000
C1375       C  0.44302569  0.67918907  0.68047387     0.08000
C1376       C  0.42494269  0.69855226  0.67514280    -0.02100
Br1377     Br  0.42466805  0.71464454  0.63889662    -0.00700
Br1378     Br  0.38590948  0.73465290  0.68843098    -0.00800
Br1379     Br  0.44811053  0.62592802  0.71261700    -0.00700
Br1380     Br  0.47633126  0.71585620  0.73291360    -0.00700
C1381       C  0.24063931  0.58781672  0.78815800    -0.01800
C1382       C  0.27633549  0.59739163  0.78048556     0.07800
C1383       C  0.29197931  0.57823259  0.79196683    -0.01900
C1384       C  0.27291097  0.55350757  0.81241333    -0.02000
C1385       C  0.23448539  0.53823269  0.81387175     0.08000
C1386       C  0.21839535  0.55439958  0.79876292    -0.02100
Br1387     Br  0.16652749  0.53483234  0.79707691    -0.00700
Br1388     Br  0.22892644  0.62363293  0.79824460    -0.00800
Br1389     Br  0.30082597  0.55092270  0.84253711    -0.00700
Br1390     Br  0.34035702  0.58831077  0.78261501    -0.00700
C1391       C  0.21678553  0.55455338  0.70384221    -0.01800
C1392       C  0.23212658  0.53922151  0.68701523     0.07800
C1393       C  0.27048591  0.55519233  0.68580368    -0.01900
C1394       C  0.29275159  0.58426076  0.70249865    -0.02000
C1395       C  0.27732630  0.59992503  0.71897232     0.08000
C1396       C  0.23905358  0.58528886  0.71859675    -0.02100
Br1397     Br  0.21619398  0.61017849  0.73341368    -0.00700
Br1398     Br  0.16504962  0.53746942  0.70311679    -0.00800
Br1399     Br  0.34451312  0.60313375  0.70158080    -0.00700
Br1400     Br  0.29314493  0.54055032  0.65879874    -0.00700
C1401       C  0.82410232  0.16501589  0.27785892     0.45500
H1402       H  0.81920678  0.16372437  0.29938998    -0.03600
C1403       C  0.82973244  0.16841883  0.22612901     0.45500
H1404       H  0.83135882  0.16889672  0.20380588    -0.03600
C1405       C  0.79869201  0.13010084  0.26425281    -0.17200
C1406       C  0.81519030  0.19251814  0.26588262    -0.17000
C1407       C  0.86312996  0.17440073  0.26878843    -0.17400
C1408       C  0.80107300  0.13143097  0.23664485    -0.17400
C1409       C  0.81834161  0.19480307  0.23810021    -0.16900
C1410       C  0.86696658  0.17769597  0.24026353    -0.17200
O1411       O  0.62518758  0.15767406  0.47326373    -0.72900
O1412       O  0.66095205  0.11862018  0.03191812    -0.73900
O1413       O  0.66861392  0.12450351  0.47480934    -0.62500
O1414       O  0.61704781  0.15227608  0.03098624    -0.70900
O1415       O  0.56850071  0.09962678  0.02818477    -0.70500
O1416       O  0.61796603  0.07367237  0.47003597    -0.61700
O1417       O  0.61201552  0.06647366  0.02707608    -0.74300
O1418       O  0.57463242  0.10685482  0.47131018    -0.73000
Cu1419     Cu  0.64508836  0.14051992  0.50310568     1.04600
Cu1420     Cu  0.59190020  0.08537273  0.49902561     1.04300
C1421       C  0.59401866  0.13791775  0.46265306     0.93300
C1422       C  0.64262055  0.08636029  0.03836359     0.92400
C1423       C  0.65075920  0.09461722  0.46326055     0.84600
C1424       C  0.58488154  0.13029387  0.03856808     0.90800
O1425       O  0.90310962  0.45639865  0.02328606    -0.72900
O1426       O  0.94076310  0.03646594  0.47213724    -0.73900
O1427       O  0.93312372  0.02992371  0.02948226    -0.62500
O1428       O  0.90761182  0.46241453  0.46586034    -0.70900
O1429       O  0.85436971  0.46060281  0.46517867    -0.70500
O1430       O  0.87827995  0.02530465  0.02762874    -0.61700
O1431       O  0.88652847  0.03325640  0.47048500    -0.74300
O1432       O  0.84864142  0.45204319  0.02345151    -0.73000
Cu1433     Cu  0.92336602  0.49641578  0.49758551     1.04600
Cu1434     Cu  0.86527685  0.49244248  0.49630876     1.04300
C1435       C  0.87084593  0.44209999  0.03225442     0.93300
C1436       C  0.91969514  0.04725908  0.46300465     0.92400
C1437       C  0.90975899  0.03826839  0.03825110     0.84600
C1438       C  0.87594970  0.45097803  0.45539639     0.90800
O1439       O  0.53644954  0.43644208  0.02765997    -0.72900
O1440       O  0.95776294  0.39787555  0.47158971    -0.73900
O1441       O  0.95979041  0.39432107  0.02976099    -0.62500
O1442       O  0.53539373  0.43989753  0.47128917    -0.70900
O1443       O  0.54076058  0.39212150  0.46980028    -0.70500
O1444       O  0.96342236  0.34554760  0.02634904    -0.61700
O1445       O  0.96335533  0.35012778  0.46843005    -0.74300
O1446       O  0.54003369  0.38790676  0.02783759    -0.73000
Cu1447     Cu  0.99656655  0.41849527  0.50015360     1.04600
Cu1448     Cu  0.00216469  0.36696768  0.99797965     1.04300
C1449       C  0.54985585  0.41839454  0.03751530     0.93300
C1450       C  0.94837993  0.36809253  0.46087629     0.92400
C1451       C  0.95043216  0.36324524  0.03768654     0.84600
C1452       C  0.55066054  0.42316105  0.46173310     0.90800
C1453       C  0.96714341  0.17572306  0.16056033     0.02300
C1454       C  0.50591537  0.19470829  0.16076295     0.02300
C1455       C  0.52460737  0.18845021  0.13979683    -0.18300
C1456       C  0.50635414  0.16274356  0.11997982     0.02300
C1457       C  0.96840704  0.14374464  0.12046915     0.02300
C1458       C  0.94921811  0.15072650  0.14021309    -0.18300
H1459       H  0.91975599  0.13581571  0.14007368     0.04300
H1460       H  0.55406337  0.20300347  0.13946986     0.04300
C1461       C  0.79749555  0.31933987  0.16391097     0.02300
C1462       C  0.81623194  0.29959337  0.16647030     0.02300
C1463       C  0.84166103  0.30319609  0.14662856    -0.18300
C1464       C  0.84932054  0.32573287  0.12469367     0.02300
C1465       C  0.83099894  0.34544555  0.12221442     0.02300
C1466       C  0.80564925  0.34215171  0.14182491    -0.18300
H1467       H  0.79205275  0.35764792  0.13989008     0.04300
H1468       H  0.85559072  0.28795978  0.14820320     0.04300
C1469       C  0.97740897  0.18789827  0.34388684     0.02300
C1470       C  0.51593373  0.20679645  0.34157894     0.02300
C1471       C  0.53698395  0.20261660  0.36202699    -0.18300
C1472       C  0.52139711  0.17741222  0.38225294     0.02300
C1473       C  0.98348665  0.15681338  0.38322313     0.02300
C1474       C  0.96233087  0.16268078  0.36443926    -0.18300
H1475       H  0.93314541  0.14635479  0.36560802     0.04300
H1476       H  0.56637324  0.21714630  0.36079722     0.04300
C1477       C  0.79460249  0.27892546  0.34309469     0.02300
C1478       C  0.78405795  0.30468910  0.33620213     0.02300
C1479       C  0.79995447  0.33700602  0.35063769    -0.18300
C1480       C  0.82485408  0.34460133  0.37193076     0.02300
C1481       C  0.83566844  0.31986698  0.37870551     0.02300
C1482       C  0.82044651  0.28811173  0.36470051    -0.18300
H1483       H  0.83059938  0.27102076  0.37104670     0.04300
H1484       H  0.79191023  0.35643024  0.34576162     0.04300
C1485       C  0.71419524  0.01791189  0.33809277     0.02300
C1486       C  0.69071947  0.48088916  0.33872762     0.02300
C1487       C  0.66866785  0.46707269  0.36180352    -0.18300
C1488       C  0.66502570  0.48829384  0.38152976     0.02300
C1489       C  0.68764975  0.02461789  0.38063809     0.02300
C1490       C  0.71305001  0.03867951  0.35972897    -0.18300
H1491       H  0.73030408  0.06685732  0.35907754     0.04300
H1492       H  0.65157649  0.43898654  0.36347289     0.04300
C1493       C  0.70945277  0.01652226  0.16427633     0.02300
C1494       C  0.68129166  0.48122418  0.16727655     0.02300
C1495       C  0.65613080  0.46561090  0.14621896    -0.18300
C1496       C  0.65701926  0.48393039  0.12301653     0.02300
C1497       C  0.68420986  0.01947954  0.12021207     0.02300
C1498       C  0.71122074  0.03426441  0.14018769    -0.18300
H1499       H  0.73240078  0.06121333  0.13797677     0.04300
H1500       H  0.63528967  0.43839544  0.14787341     0.04300
C1501       C  0.65369415  0.32678632  0.27421606     0.45500
H1502       H  0.65052153  0.32402738  0.29628780    -0.03600
C1503       C  0.65569644  0.33039657  0.22212813     0.45500
H1504       H  0.65633159  0.33289978  0.19986823    -0.03600
C1505       C  0.61823666  0.29842522  0.26072640    -0.17200
C1506       C  0.66092365  0.36336349  0.26383813    -0.17000
C1507       C  0.68476964  0.32102431  0.26220688    -0.17400
C1508       C  0.61884816  0.29980990  0.23285208    -0.17400
C1509       C  0.66147661  0.36488258  0.23597502    -0.16900
C1510       C  0.68644078  0.32374304  0.23403172    -0.17200
C1511       C  0.64913556  0.43969599  0.20565026    -0.01800
C1512       C  0.67976322  0.45659727  0.18863844     0.07800
C1513       C  0.70217554  0.44138779  0.18553387    -0.01900
C1514       C  0.69704936  0.41271844  0.20135270    -0.02000
C1515       C  0.66802900  0.39701358  0.21998303     0.08000
C1516       C  0.64375370  0.41076115  0.22154444    -0.02100
Br1517     Br  0.59972656  0.38756435  0.24210619    -0.00700
Br1518     Br  0.61047399  0.45140417  0.20353455    -0.00800
Br1519     Br  0.73065939  0.39591185  0.19571828    -0.00700
Br1520     Br  0.73478725  0.45448596  0.15507269    -0.00700
C1521       C  0.64874032  0.42842990  0.30977906    -0.01800
C1522       C  0.68465073  0.45474350  0.31614976     0.07800
C1523       C  0.71270958  0.45015917  0.30475114    -0.01900
C1524       C  0.70477904  0.42419561  0.28468151    -0.02000
C1525       C  0.66945583  0.39483320  0.28227462     0.08000
C1526       C  0.64238196  0.39654670  0.29785893    -0.02100
Br1527     Br  0.59875481  0.35553272  0.30736571    -0.00700
Br1528     Br  0.60762686  0.43530075  0.31684022    -0.00800
Br1529     Br  0.74359991  0.43046376  0.26187020    -0.00700
Br1530     Br  0.75989497  0.47069566  0.32095200    -0.00700
C1531       C  0.71193744  0.32077061  0.30876133    -0.01800
C1532       C  0.70892254  0.31273708  0.28066239     0.07800
C1533       C  0.72854551  0.29546442  0.27193842    -0.01900
C1534       C  0.75736869  0.29791930  0.28826585    -0.02000
C1535       C  0.75490964  0.30012681  0.31652245     0.08000
C1536       C  0.72699743  0.30598543  0.32598258    -0.02100
Br1537     Br  0.70570102  0.28983531  0.36065411    -0.00700
Br1538     Br  0.70895898  0.35962653  0.32440405    -0.00800
Br1539     Br  0.80007515  0.30191790  0.27133808    -0.00700
Br1540     Br  0.71097750  0.25959192  0.24452346    -0.00700
C1541       C  0.56273610  0.21912589  0.30609756    -0.01800
C1542       C  0.53649747  0.22678400  0.31701364     0.07800
C1543       C  0.53477501  0.25584901  0.30639533    -0.01900
C1544       C  0.55626910  0.27369999  0.28370186    -0.02000
C1545       C  0.58775417  0.27112488  0.27770460     0.08000
C1546       C  0.59157747  0.24454017  0.29115658    -0.02100
Br1547     Br  0.63661728  0.24396963  0.29435631    -0.00700
Br1548     Br  0.56061479  0.17447942  0.31209204    -0.00800
Br1549     Br  0.54178207  0.30054526  0.26125241    -0.00700
Br1550     Br  0.50979947  0.27584654  0.32582847    -0.00700
C1551       C  0.70574677  0.30215813  0.19156410    -0.01800
C1552       C  0.71544829  0.32249923  0.21596409     0.07800
C1553       C  0.75352730  0.34269763  0.22197663    -0.01900
C1554       C  0.77976090  0.34170215  0.20484404    -0.02000
C1555       C  0.76939406  0.31790683  0.18311185     0.08000
C1556       C  0.73234190  0.29962554  0.17577866    -0.02100
Br1557     Br  0.71831379  0.27416331  0.14187232    -0.00700
Br1558     Br  0.65652426  0.27655506  0.17833912    -0.00800
Br1559     Br  0.82978067  0.37816752  0.20786461    -0.00700
Br1560     Br  0.77241820  0.37498994  0.25195556    -0.00700
C1561       C  0.54003698  0.25633274  0.18012184    -0.01800
C1562       C  0.52979767  0.22052652  0.18210466     0.07800
C1563       C  0.55045695  0.21126284  0.19944950    -0.01900
C1564       C  0.57954665  0.23685383  0.21514096    -0.02000
C1565       C  0.58838280  0.27260095  0.21479893     0.08000
C1566       C  0.56902530  0.28203456  0.19607397    -0.02100
Br1567     Br  0.58407896  0.33036496  0.18965258    -0.00700
Br1568     Br  0.51655952  0.27065810  0.15346414    -0.00800
Br1569     Br  0.61201601  0.22318516  0.23153036    -0.00700
Br1570     Br  0.54169770  0.16357205  0.19939166    -0.00700
C1571       C  0.92660855  0.34619450  0.41367178    -0.01800
C1572       C  0.91951212  0.35410940  0.43988418     0.07800
C1573       C  0.88423629  0.34762154  0.44624408    -0.01900
C1574       C  0.85588498  0.33064400  0.42739556    -0.02000
C1575       C  0.86361081  0.32712257  0.40029280     0.08000
C1576       C  0.89901003  0.33375548  0.39364254    -0.02100
Br1577     Br  0.90996610  0.32612616  0.35721270    -0.00700
Br1578     Br  0.97492663  0.35534922  0.40459319    -0.00800
Br1579     Br  0.80644108  0.30792190  0.43963431    -0.00700
Br1580     Br  0.87457757  0.36399366  0.47979980    -0.00700
C1581       C  0.63813154  0.45009718  0.42234980    -0.01800
C1582       C  0.63558004  0.47125712  0.40196808     0.07800
C1583       C  0.60383615  0.47436836  0.40010525    -0.01900
C1584       C  0.57685237  0.45991141  0.42008281    -0.02000
C1585       C  0.57993538  0.43973135  0.44118553     0.08000
C1586       C  0.61070136  0.43464843  0.44196463    -0.02100
Br1587     Br  0.61696786  0.40803219  0.47053804    -0.00700
Br1588     Br  0.67848698  0.44075998  0.42271645    -0.00800
Br1589     Br  0.53491975  0.46674964  0.41728006    -0.00700
Br1590     Br  0.59462050  0.49412217  0.36825179    -0.00700
C1591       C  0.57530792  0.45910754  0.07781648    -0.01800
C1592       C  0.57603300  0.43316753  0.06065202     0.07800
C1593       C  0.60154830  0.42159913  0.06632073    -0.01900
C1594       C  0.62723256  0.43743810  0.08732353    -0.02000
C1595       C  0.62802491  0.46510144  0.10257349     0.08000
C1596       C  0.60065584  0.47415321  0.09897942    -0.02100
Br1597     Br  0.59629632  0.00583170  0.12458562    -0.00700
Br1598     Br  0.53926909  0.97491759  0.07411964    -0.00800
Br1599     Br  0.66220469  0.42178258  0.09476562    -0.00700
Br1600     Br  0.60337029  0.38511128  0.04534597    -0.00700
C1601       C  0.86414043  0.31295812  0.07831476    -0.01800
C1602       C  0.87615705  0.32827714  0.10405050     0.07800
C1603       C  0.91380577  0.34781325  0.10924660    -0.01900
C1604       C  0.93832479  0.35846396  0.08752115    -0.02000
C1605       C  0.92538006  0.34821984  0.06082744     0.08000
C1606       C  0.88880827  0.32266924  0.05674175    -0.02100
Br1607     Br  0.87306867  0.29939848  0.02230506    -0.00700
Br1608     Br  0.81468367  0.27639697  0.07354015    -0.00800
Br1609     Br  0.98971282  0.38478891  0.09454349    -0.00700
Br1610     Br  0.93184997  0.35817127  0.14598218    -0.00700
C1611       C  0.92194191  0.09663645  0.05570305    -0.01800
C1612       C  0.91930431  0.06374012  0.06047585     0.07800
C1613       C  0.92394708  0.05486916  0.08694569    -0.01900
C1614       C  0.93729056  0.08058968  0.10731935    -0.02000
C1615       C  0.94772442  0.11544914  0.10073254     0.08000
C1616       C  0.93693181  0.12282136  0.07573224    -0.02100
Br1617     Br  0.93950388  0.16747586  0.06998477    -0.00700
Br1618     Br  0.90262821  0.10502921  0.02283570    -0.00800
Br1619     Br  0.43472481  0.06676655  0.14502169    -0.00700
Br1620     Br  0.90783666  0.00696438  0.09599237    -0.00700
C1621       C  0.95925570  0.10980071  0.45057585    -0.01800
C1622       C  0.93388784  0.07542008  0.44289484     0.07800
C1623       C  0.92370044  0.06754319  0.41552887    -0.01900
C1624       C  0.94047195  0.09361027  0.39577026    -0.02000
C1625       C  0.96470004  0.12867750  0.40374330     0.08000
C1626       C  0.97109002  0.13673634  0.43155711    -0.02100
Br1627     Br  0.49028226  0.18463072  0.44430991    -0.00700
Br1628     Br  0.98059444  0.12001207  0.48628451    -0.00800
Br1629     Br  0.93061335  0.08020331  0.35805072    -0.00700
Br1630     Br  0.88855106  0.02039112  0.40497868    -0.00700
C1631       C  0.82548942  0.40149149  0.42968152    -0.01800
C1632       C  0.86299639  0.42611485  0.43206914     0.07800
C1633       C  0.88676983  0.42761035  0.41132763    -0.01900
C1634       C  0.87352694  0.40311199  0.38979764    -0.02000
C1635       C  0.83680303  0.37671088  0.38899111     0.08000
C1636       C  0.81260502  0.37781651  0.40793762    -0.02100
Br1637     Br  0.76146371  0.34558055  0.40557504    -0.00700
Br1638     Br  0.79063524  0.39702810  0.45698253    -0.00800
Br1639     Br  0.90509800  0.40645167  0.36061455    -0.00700
Br1640     Br  0.93714180  0.46355153  0.41144209    -0.00700
C1641       C  0.82494035  0.38668910  0.05578045    -0.01800
C1642       C  0.86041409  0.41569264  0.05427690     0.07800
C1643       C  0.88557667  0.42079544  0.07535660    -0.01900
C1644       C  0.87372590  0.40080833  0.09895409    -0.02000
C1645       C  0.83943814  0.37076758  0.09971331     0.06100
C1646       C  0.81479585  0.36388365  0.07812509    -0.02100
Br1647     Br  0.76676994  0.32382591  0.07942559    -0.00700
Br1648     Br  0.79118848  0.37564139  0.02616818    -0.00800
Br1649     Br  0.90265133  0.41739957  0.13151885    -0.00700
Br1650     Br  0.93709725  0.45304138  0.07245038    -0.00700
C1651       C  0.56023819  0.16865698  0.05646944    -0.01800
C1652       C  0.56631561  0.13986295  0.05979206     0.07800
C1653       C  0.55406668  0.11970892  0.08351452    -0.01900
C1654       C  0.53635286  0.12846195  0.10369285    -0.02000
C1655       C  0.52807850  0.15568923  0.09957164     0.08000
C1656       C  0.54139134  0.17664561  0.07633294    -0.02100
Br1657     Br  0.53562042  0.21749605  0.07238865    -0.00700
Br1658     Br  0.57562653  0.19598251  0.02399060    -0.00800
Br1659     Br  0.52703517  0.10546842  0.13811583    -0.00700
Br1660     Br  0.56185446  0.08013884  0.08876820    -0.00700
C1661       C  0.58815370  0.18566696  0.43785250    -0.01800
C1662       C  0.58001495  0.15021287  0.43986919     0.07800
C1663       C  0.55795167  0.12607704  0.41954824    -0.01900
C1664       C  0.54333707  0.13705326  0.39867540    -0.02000
C1665       C  0.54552938  0.17007940  0.39996081     0.08000
C1666       C  0.56985140  0.19521862  0.41854566    -0.02100
Br1667     Br  0.57765791  0.24258674  0.41805065    -0.00700
Br1668     Br  0.62349447  0.22170031  0.46130554    -0.00800
Br1669     Br  0.02394692  0.10850147  0.36661246    -0.00700
Br1670     Br  0.04842232  0.07830381  0.41857474    -0.00700
C1671       C  0.65976413  0.08666524  0.41424752    -0.01800
C1672       C  0.66743909  0.08382569  0.44152763     0.07800
C1673       C  0.68954565  0.06895158  0.44778494    -0.01900
C1674       C  0.69733591  0.05058302  0.42773444    -0.02000
C1675       C  0.68455971  0.04857370  0.40097827     0.08000
C1676       C  0.66905501  0.06982761  0.39391235    -0.02100
Br1677     Br  0.66205438  0.07783557  0.35668180    -0.00700
Br1678     Br  0.63949593  0.11625893  0.40471615    -0.00800
Br1679     Br  0.72804046  0.03079290  0.43640578    -0.00700
Br1680     Br  0.71213988  0.07710498  0.48290810    -0.00700
C1681       C  0.67870486  0.03139992  0.07129352    -0.01800
C1682       C  0.68231052  0.04224655  0.09846468     0.07800
C1683       C  0.67802099  0.07165569  0.10498976    -0.01900
C1684       C  0.66671362  0.08713998  0.08490687    -0.02000
C1685       C  0.65708402  0.07187320  0.05890409     0.08000
C1686       C  0.66207421  0.04308742  0.05248396    -0.02100
Br1687     Br  0.64315142  0.01688347  0.01933720    -0.00700
Br1688     Br  0.69929109  0.50264673  0.05915347    -0.00800
Br1689     Br  0.66044001  0.12683859  0.09405283    -0.00700
Br1690     Br  0.68508918  0.09011047  0.14142435    -0.00700
C1691       C  0.83565921  0.28360132  0.20990482    -0.01800
C1692       C  0.81054033  0.27374715  0.18822946     0.07800
C1693       C  0.78891481  0.23779360  0.18233732    -0.01900
C1694       C  0.79184627  0.21227758  0.19795374    -0.02000
C1695       C  0.81472690  0.22190419  0.22121043     0.08000
C1696       C  0.83703908  0.25814555  0.22667549    -0.02100
Br1697     Br  0.87576440  0.27382848  0.25304309    -0.00700
Br1698     Br  0.87318564  0.33169551  0.21367509    -0.00800
Br1699     Br  0.76689895  0.16489329  0.18477011    -0.00700
Br1700     Br  0.75896915  0.22347528  0.15009344    -0.00700
C1701       C  0.82374391  0.22430752  0.30988489    -0.01800
C1702       C  0.80472409  0.21337229  0.28504819     0.07800
C1703       C  0.77148199  0.21466011  0.28346196    -0.01900
C1704       C  0.76170215  0.23060486  0.30492869    -0.02000
C1705       C  0.78520086  0.24508207  0.32753640     0.08000
C1706       C  0.80829496  0.23122461  0.33177053    -0.02100
Br1707     Br  0.80142505  0.20298737  0.36322306    -0.00700
Br1708     Br  0.87334650  0.23751686  0.31556693    -0.00800
Br1709     Br  0.71143484  0.21769316  0.30961992    -0.00700
Br1710     Br  0.73851442  0.19412103  0.25357821    -0.00700
C1711       C  0.92853739  0.19798248  0.28284102    -0.01800
C1712       C  0.89206907  0.17909390  0.28996605     0.07800
C1713       C  0.88660623  0.17256406  0.31874676    -0.01900
C1714       C  0.91737363  0.18636135  0.33613402    -0.02000
C1715       C  0.95085924  0.19163201  0.32578279     0.08000
C1716       C  0.95357591  0.19193072  0.29768592    -0.02100
Br1717     Br  0.97018765  0.16170724  0.28253015    -0.00700
Br1718     Br  0.94266905  0.24638485  0.27638704    -0.00800
Br1719     Br  0.91346146  0.19790169  0.37337202    -0.00700
Br1720     Br  0.84182007  0.14351650  0.33744859    -0.00700
C1721       C  0.90433674  0.20334535  0.19612523    -0.01800
C1722       C  0.90117853  0.18823716  0.22231254     0.07800
C1723       C  0.92767700  0.17770577  0.22749800    -0.01900
C1724       C  0.93725485  0.16303935  0.20610714    -0.02000
C1725       C  0.94331944  0.17948707  0.18086613     0.08000
C1726       C  0.92522861  0.19885128  0.17551774    -0.02100
Br1727     Br  0.92475298  0.21479294  0.13925691    -0.00700
Br1728     Br  0.88664472  0.23536806  0.18898352    -0.00800
Br1729     Br  0.94867547  0.12647936  0.21312796    -0.00700
Br1730     Br  0.97664983  0.21653692  0.23330068    -0.00700
C1731       C  0.74071185  0.08814582  0.28834967    -0.01800
C1732       C  0.77627830  0.09750732  0.28040606     0.07800
C1733       C  0.79187436  0.07817987  0.29161517    -0.01900
C1734       C  0.77302489  0.05354532  0.31214849    -0.02000
C1735       C  0.73466696  0.03850619  0.31398087     0.08000
C1736       C  0.71848579  0.05484957  0.29918058    -0.02100
Br1737     Br  0.66661910  0.03564357  0.29818633    -0.00700
Br1738     Br  0.72892329  0.12407250  0.29789342    -0.00800
Br1739     Br  0.80132655  0.05099161  0.34200102    -0.00700
Br1740     Br  0.84011943  0.08817306  0.28190840    -0.00700
C1741       C  0.71721815  0.05451698  0.20389612    -0.01800
C1742       C  0.73262122  0.03949916  0.18681462     0.07800
C1743       C  0.77099810  0.05585701  0.18531856    -0.01900
C1744       C  0.79322461  0.08481506  0.20212849    -0.02000
C1745       C  0.77772033  0.10016431  0.21886549     0.08000
C1746       C  0.73942719  0.08534508  0.21856792    -0.02100
Br1747     Br  0.71647535  0.11028667  0.23311052    -0.00700
Br1748     Br  0.66539136  0.03690368  0.20361501    -0.00800
Br1749     Br  0.84501181  0.10398845  0.20096204    -0.00700
Br1750     Br  0.79366891  0.04202651  0.15772165    -0.00700
C1751       C  0.82388746  0.16490713  0.77750035     0.45500
H1752       H  0.81898698  0.16358432  0.79909336    -0.03600
C1753       C  0.82943140  0.16836869  0.72578491     0.45500
H1754       H  0.83094471  0.16883613  0.70344228    -0.03600
C1755       C  0.79841696  0.13002849  0.76393320    -0.17200
C1756       C  0.81513633  0.19252461  0.76560934    -0.17000
C1757       C  0.86281605  0.17416797  0.76840901    -0.17400
C1758       C  0.80068927  0.13140782  0.73632123    -0.17400
C1759       C  0.81826486  0.19489566  0.73783479    -0.16900
C1760       C  0.86665601  0.17743278  0.73986851    -0.17200
O1761       O  0.62392358  0.15673570  0.97319299    -0.72900
O1762       O  0.66155477  0.11925063  0.53225956    -0.73900
O1763       O  0.66743614  0.12368670  0.97441170    -0.62500
O1764       O  0.61792205  0.15302233  0.53108788    -0.70900
O1765       O  0.56919840  0.10051251  0.52796076    -0.70500
O1766       O  0.61678743  0.07284798  0.96973843    -0.61700
O1767       O  0.61239914  0.06728327  0.52728232    -0.74300
O1768       O  0.57335000  0.10593530  0.97152653    -0.73000
Cu1769     Cu  0.64410225  0.13972400  0.00287828     1.04600
Cu1770     Cu  0.59101159  0.08449954  0.99902638     1.04300
C1771       C  0.59264624  0.13696486  0.96277165     0.93300
C1772       C  0.64294141  0.08701013  0.53868861     0.92400
C1773       C  0.64952070  0.09381949  0.96283622     0.84600
C1774       C  0.58568114  0.13106323  0.53852364     0.90800
O1775       O  0.90375630  0.45641065  0.52298647    -0.72900
O1776       O  0.93946871  0.03628484  0.97213680    -0.73900
O1777       O  0.93391390  0.02976732  0.52936618    -0.62500
O1778       O  0.90634771  0.46224220  0.96619678    -0.70900
O1779       O  0.85320245  0.46062952  0.96573901    -0.70500
O1780       O  0.87902877  0.02505152  0.52731534    -0.61700
O1781       O  0.88523191  0.03307492  0.97066089    -0.74300
O1782       O  0.84924650  0.45196289  0.52292548    -0.73000
Cu1783     Cu  0.92266031  0.49637040  0.99786576     1.04600
Cu1784     Cu  0.86465831  0.49259099  0.99686303     1.04300
C1785       C  0.87145204  0.44211274  0.53188183     0.93300
C1786       C  0.91833018  0.04700386  0.96301262     0.92400
C1787       C  0.91046235  0.03806610  0.53801573     0.84600
C1788       C  0.87459358  0.45082500  0.95588726     0.90800
O1789       O  0.53598132  0.43736606  0.52766612    -0.72900
O1790       O  0.95787022  0.39753539  0.97173906    -0.73900
O1791       O  0.95911493  0.39425086  0.52955933    -0.62500
O1792       O  0.53571094  0.43912647  0.97123209    -0.70900
O1793       O  0.54142156  0.39153223  0.96983309    -0.70500
O1794       O  0.96308503  0.34563594  0.52627575    -0.61700
O1795       O  0.96378195  0.34998217  0.96835264    -0.74300
O1796       O  0.53968366  0.38889758  0.52779870    -0.73000
Cu1797     Cu  0.99691289  0.41830615  0.00010541     1.04600
Cu1798     Cu  0.00176885  0.36712360  0.49793133     1.04300
C1799       C  0.54941665  0.41934504  0.53751560     0.93300
C1800       C  0.94868220  0.36787857  0.96087619     0.92400
C1801       C  0.94987002  0.36320198  0.53749298     0.84600
C1802       C  0.55117099  0.42253266  0.96172312     0.90800
C1803       C  0.96704133  0.17544999  0.66015883     0.02300
C1804       C  0.50596746  0.19455221  0.66065365     0.02300
C1805       C  0.52486210  0.18831362  0.63984804    -0.18300
C1806       C  0.50676508  0.16281293  0.61989451     0.02300
C1807       C  0.96877573  0.14379353  0.62002537     0.02300
C1808       C  0.94935190  0.15043214  0.63979486    -0.18300
H1809       H  0.91990651  0.13525330  0.63965146     0.04300
H1810       H  0.55432953  0.20276417  0.63972183     0.04300
C1811       C  0.79789607  0.32004667  0.66390646     0.02300
C1812       C  0.81639134  0.30008592  0.66650663     0.02300
C1813       C  0.84154054  0.30332489  0.64656320    -0.18300
C1814       C  0.84919463  0.32576308  0.62456193     0.02300
C1815       C  0.83128788  0.34584888  0.62214402     0.02300
C1816       C  0.80618413  0.34289384  0.64182943    -0.18300
H1817       H  0.79278430  0.35857027  0.63990687     0.04300
H1818       H  0.85525433  0.28788845  0.64810683     0.04300
C1819       C  0.97662959  0.18764861  0.84367497     0.02300
C1820       C  0.51554265  0.20609716  0.84124131     0.02300
C1821       C  0.53646496  0.20198975  0.86180649    -0.18300
C1822       C  0.52079476  0.17672779  0.88197031     0.02300
C1823       C  0.98209665  0.15625257  0.88299397     0.02300
C1824       C  0.96121601  0.16225590  0.86407058    -0.18300
H1825       H  0.93199691  0.14600582  0.86504999     0.04300
H1826       H  0.56585884  0.21658533  0.86069371     0.04300
C1827       C  0.79498842  0.27901678  0.84293481     0.02300
C1828       C  0.78368663  0.30436127  0.83650690     0.02300
C1829       C  0.79879459  0.33627823  0.85145681    -0.18300
C1830       C  0.82381596  0.34395880  0.87266698     0.02300
C1831       C  0.83586307  0.31991559  0.87867531     0.02300
C1832       C  0.82139615  0.28854913  0.86418485    -0.18300
H1833       H  0.83253133  0.27203840  0.86992019     0.04300
H1834       H  0.79017491  0.35538414  0.84696101     0.04300
C1835       C  0.71402653  0.01773977  0.83779393     0.02300
C1836       C  0.69117939  0.48046772  0.83847449     0.02300
C1837       C  0.66942221  0.46655206  0.86168528    -0.18300
C1838       C  0.66539108  0.48764714  0.88130644     0.02300
C1839       C  0.68745355  0.02433623  0.88036481     0.02300
C1840       C  0.71277243  0.03848569  0.85940658    -0.18300
H1841       H  0.72985291  0.06668398  0.85870247     0.04300
H1842       H  0.65268288  0.43843555  0.86346811     0.04300
C1843       C  0.70915052  0.01627097  0.66421468     0.02300
C1844       C  0.68033249  0.48110718  0.66767939     0.02300
C1845       C  0.65490856  0.46564451  0.64675170    -0.18300
C1846       C  0.65575663  0.48404053  0.62359775     0.02300
C1847       C  0.68380990  0.01927742  0.62024679     0.02300
C1848       C  0.71094930  0.03396699  0.64011325    -0.18300
H1849       H  0.73223839  0.06085886  0.63783745     0.04300
H1850       H  0.63401166  0.43845144  0.64840587     0.04300
C1851       C  0.65359943  0.32631943  0.77397184     0.45500
H1852       H  0.65032463  0.32353693  0.79602425    -0.03600
C1853       C  0.65567229  0.32999876  0.72189598     0.45500
H1854       H  0.65633494  0.33250156  0.69963915    -0.03600
C1855       C  0.61818517  0.29793350  0.76047324    -0.17200
C1856       C  0.66086596  0.36290322  0.76354744    -0.17000
C1857       C  0.68471194  0.32060383  0.76202821    -0.17400
C1858       C  0.61884061  0.29942425  0.73260312    -0.17400
C1859       C  0.66140428  0.36443445  0.73568860    -0.16900
C1860       C  0.68641679  0.32341609  0.73385994    -0.17200
C1861       C  0.64875171  0.43936647  0.70603481    -0.01800
C1862       C  0.67910519  0.45630588  0.68878656     0.07800
C1863       C  0.70134563  0.44097248  0.68518146    -0.01900
C1864       C  0.69643726  0.41221324  0.70081570    -0.02000
C1865       C  0.66769562  0.39648359  0.71968297     0.08000
C1866       C  0.64342041  0.41018697  0.72157236    -0.02100
Br1867     Br  0.59929414  0.38643136  0.74194457    -0.00700
Br1868     Br  0.61037169  0.45150028  0.70481279    -0.00800
Br1869     Br  0.72997012  0.39538188  0.69467624    -0.00700
Br1870     Br  0.73342364  0.45414386  0.65439525    -0.00700
C1871       C  0.64893918  0.42773215  0.80985819    -0.01800
C1872       C  0.68490922  0.45427309  0.81587820     0.07800
C1873       C  0.71290199  0.44995328  0.80404369    -0.01900
C1874       C  0.70476291  0.42390487  0.78401781    -0.02000
C1875       C  0.66950139  0.39437718  0.78195030     0.08000
C1876       C  0.64255041  0.39592026  0.79779041    -0.02100
Br1877     Br  0.59875167  0.35479571  0.80695023    -0.00700
Br1878     Br  0.60773098  0.43423405  0.81750514    -0.00800
Br1879     Br  0.74318756  0.43048153  0.76062071    -0.00700
Br1880     Br  0.76064601  0.47136313  0.81934558    -0.00700
C1881       C  0.71153427  0.32010666  0.80869068    -0.01800
C1882       C  0.70888467  0.31236426  0.78054121     0.07800
C1883       C  0.72884233  0.29539130  0.77185683    -0.01900
C1884       C  0.75756556  0.29788552  0.78835045    -0.02000
C1885       C  0.75475329  0.29983123  0.81661119     0.08000
C1886       C  0.72651990  0.30527387  0.82593156    -0.02100
Br1887     Br  0.70534043  0.28924954  0.86066518    -0.00700
Br1888     Br  0.70827345  0.35875350  0.82447677    -0.00800
Br1889     Br  0.80052757  0.30214127  0.77164445    -0.00700
Br1890     Br  0.71197323  0.25992348  0.74412845    -0.00700
C1891       C  0.56283485  0.21866636  0.80604101    -0.01800
C1892       C  0.53628063  0.22609152  0.81669629     0.07800
C1893       C  0.53444210  0.25501926  0.80589539    -0.01900
C1894       C  0.55603754  0.27288361  0.78324510    -0.02000
C1895       C  0.58769440  0.27053617  0.77743857     0.08000
C1896       C  0.59164623  0.24411075  0.79105728    -0.02100
Br1897     Br  0.63674185  0.24362515  0.79417416    -0.00700
Br1898     Br  0.56125250  0.17432452  0.81250861    -0.00800
Br1899     Br  0.54153785  0.29958834  0.76065516    -0.00700
Br1900     Br  0.50936428  0.27505157  0.82514564    -0.00700
C1901       C  0.70597285  0.30247264  0.69128216    -0.01800
C1902       C  0.71553115  0.32251581  0.71581748     0.07800
C1903       C  0.75354966  0.34284593  0.72194345    -0.01900
C1904       C  0.77991462  0.34200410  0.70489426    -0.02000
C1905       C  0.76968525  0.31855571  0.68294790     0.08000
C1906       C  0.73272771  0.30050836  0.67534258    -0.02100
Br1907     Br  0.71905416  0.27634855  0.64087254    -0.00700
Br1908     Br  0.65671759  0.27631828  0.67816770    -0.00800
Br1909     Br  0.82997271  0.37823546  0.70835960    -0.00700
Br1910     Br  0.77214558  0.37495700  0.75204913    -0.00700
C1911       C  0.54016411  0.25614610  0.67984236    -0.01800
C1912       C  0.52968493  0.22031049  0.68202798     0.07800
C1913       C  0.55015290  0.21095710  0.69949216    -0.01900
C1914       C  0.57939120  0.23653842  0.71504129    -0.02000
C1915       C  0.58842747  0.27231783  0.71452911     0.08000
C1916       C  0.56928390  0.28183935  0.69567388    -0.02100
Br1917     Br  0.58487548  0.33019813  0.68880368    -0.00700
Br1918     Br  0.51682178  0.27047596  0.65306890    -0.00800
Br1919     Br  0.61187216  0.22281637  0.73135941    -0.00700
Br1920     Br  0.54087063  0.16311123  0.69984075    -0.00700
C1921       C  0.92727363  0.34710480  0.91336252    -0.01800
C1922       C  0.91987934  0.35400008  0.93981131     0.07800
C1923       C  0.88442175  0.34683487  0.94628650    -0.01900
C1924       C  0.85618234  0.33005324  0.92733029    -0.02000
C1925       C  0.86405814  0.32734714  0.90011360     0.08000
C1926       C  0.89967323  0.33473025  0.89331455    -0.02100
Br1927     Br  0.91090808  0.32811153  0.85669702    -0.00700
Br1928     Br  0.97596882  0.35768823  0.90403602    -0.00800
Br1929     Br  0.80671253  0.30648818  0.93950818    -0.00700
Br1930     Br  0.87436594  0.36222062  0.98014050    -0.00700
C1931       C  0.63871717  0.44966689  0.92229338    -0.01800
C1932       C  0.63591045  0.47045816  0.90172114     0.07800
C1933       C  0.60395701  0.47319813  0.89973364    -0.01900
C1934       C  0.57704512  0.45883424  0.91978230    -0.02000
C1935       C  0.58045131  0.43916516  0.94114341     0.08000
C1936       C  0.61145322  0.43445987  0.94206526    -0.02100
Br1937     Br  0.61829776  0.40879376  0.97108850    -0.00700
Br1938     Br  0.67910926  0.44038186  0.92264991    -0.00800
Br1939     Br  0.53475623  0.46505280  0.91673954    -0.00700
Br1940     Br  0.59434752  0.49220388  0.86761306    -0.00700
C1941       C  0.57471152  0.45998299  0.57789121    -0.01800
C1942       C  0.57545247  0.43403187  0.56073513     0.07800
C1943       C  0.60076160  0.42225043  0.56655093    -0.01900
C1944       C  0.62616896  0.43780224  0.58774956    -0.02000
C1945       C  0.62682555  0.46531447  0.60310916     0.08000
C1946       C  0.59967097  0.47461151  0.59933164    -0.02100
Br1947     Br  0.59578472  0.00558270  0.62485672    -0.00700
Br1948     Br  0.53955366  0.97583429  0.57382539    -0.00800
Br1949     Br  0.66113347  0.42213363  0.59519329    -0.00700
Br1950     Br  0.60280371  0.38595360  0.54545929    -0.00700
C1951       C  0.86361199  0.31290288  0.57811915    -0.01800
C1952       C  0.87580573  0.32803291  0.60388108     0.07800
C1953       C  0.91345462  0.34733985  0.60903918    -0.01900
C1954       C  0.93789358  0.35783797  0.58729269    -0.02000
C1955       C  0.92480293  0.34809328  0.56057998     0.08000
C1956       C  0.88811952  0.32287859  0.55643787    -0.02100
Br1957     Br  0.87197662  0.30043755  0.52175286    -0.00700
Br1958     Br  0.81424597  0.27608692  0.57350330    -0.00800
Br1959     Br  0.98931428  0.38318695  0.59430446    -0.00700
Br1960     Br  0.93157435  0.35770159  0.64575511    -0.00700
C1961       C  0.92335424  0.09679294  0.55500597    -0.01800
C1962       C  0.91991456  0.06365528  0.56011913     0.07800
C1963       C  0.92374870  0.05473432  0.58675219    -0.01900
C1964       C  0.93715715  0.08055402  0.60704584    -0.02000
C1965       C  0.94833838  0.11551848  0.60023707     0.08000
C1966       C  0.93836833  0.12304847  0.57496856    -0.02100
Br1967     Br  0.94204076  0.16807327  0.56874591    -0.00700
Br1968     Br  0.90490553  0.10538538  0.52178732    -0.00800
Br1969     Br  0.43576948  0.06723365  0.64448919    -0.00700
Br1970     Br  0.90637340  0.00670537  0.59607137    -0.00700
C1971       C  0.95726199  0.10959988  0.95043686    -0.01800
C1972       C  0.93238733  0.07505616  0.94278091     0.07800
C1973       C  0.92252377  0.06697556  0.91537394    -0.01900
C1974       C  0.93911492  0.09303244  0.89557109    -0.02000
C1975       C  0.96305161  0.12817814  0.90350576     0.08000
C1976       C  0.96910012  0.13640536  0.93130389    -0.02100
Br1977     Br  0.49012072  0.18389353  0.94409460    -0.00700
Br1978     Br  0.97792060  0.12024157  0.98633893    -0.00800
Br1979     Br  0.92936681  0.07956860  0.85785176    -0.00700
Br1980     Br  0.88801679  0.01961846  0.90485617    -0.00700
C1981       C  0.82391405  0.40104654  0.93035839    -0.01800
C1982       C  0.86142517  0.42581355  0.93264273     0.07800
C1983       C  0.88513849  0.42728758  0.91187140    -0.01900
C1984       C  0.87190134  0.40270859  0.89042268    -0.02000
C1985       C  0.83539799  0.37585162  0.88993692     0.08000
C1986       C  0.81115231  0.37675649  0.90896976    -0.02100
Br1987     Br  0.76017652  0.34363210  0.90709171    -0.00700
Br1988     Br  0.78884534  0.39762504  0.95710531    -0.00800
Br1989     Br  0.90308738  0.40671524  0.86076893    -0.00700
Br1990     Br  0.93542318  0.46345460  0.91172536    -0.00700
C1991       C  0.82546554  0.38687548  0.55553984    -0.01800
C1992       C  0.86095587  0.41584224  0.55401377     0.07800
C1993       C  0.88604990  0.42106398  0.57518038    -0.01900
C1994       C  0.87414120  0.40114562  0.59881921    -0.02000
C1995       C  0.83983775  0.37111370  0.59957999     0.06100
C1996       C  0.81528994  0.36413002  0.57791307    -0.02100
Br1997     Br  0.76736702  0.32393939  0.57908036    -0.00700
Br1998     Br  0.79162496  0.37584912  0.52599785    -0.00800
Br1999     Br  0.90309152  0.41770105  0.63137908    -0.00700
Br2000     Br  0.93753702  0.45347319  0.57236554    -0.00700
C2001       C  0.56107459  0.16930016  0.55657169    -0.01800
C2002       C  0.56714633  0.14050859  0.55980141     0.07800
C2003       C  0.55491343  0.12023486  0.58346660    -0.01900
C2004       C  0.53713969  0.12885668  0.60367375    -0.02000
C2005       C  0.52864144  0.15593484  0.59954470     0.08000
C2006       C  0.54198696  0.17702652  0.57638113    -0.02100
Br2007     Br  0.53591578  0.21770360  0.57246125    -0.00700
Br2008     Br  0.57691041  0.19703933  0.52431510    -0.00800
Br2009     Br  0.52809511  0.10594713  0.63812261    -0.00700
Br2010     Br  0.56277301  0.08068116  0.58857964    -0.00700
C2011       C  0.58716971  0.18480179  0.93776234    -0.01800
C2012       C  0.57854487  0.14921678  0.94002494     0.07800
C2013       C  0.55623368  0.12501182  0.91982119    -0.01900
C2014       C  0.54225883  0.13617768  0.89865609    -0.02000
C2015       C  0.54486044  0.16937082  0.89970592     0.08000
C2016       C  0.56919271  0.19449261  0.91828586    -0.02100
Br2017     Br  0.57738022  0.24199603  0.91759862    -0.00700
Br2018     Br  0.62268210  0.22085894  0.96111584    -0.00800
Br2019     Br  0.02216630  0.10753386  0.86711137    -0.00700
Br2020     Br  0.04462227  0.07679994  0.91976659    -0.00700
C2021       C  0.65786132  0.08516056  0.91376312    -0.01800
C2022       C  0.66615468  0.08303033  0.94103833     0.07800
C2023       C  0.68909265  0.06905317  0.94726483    -0.01900
C2024       C  0.69709161  0.05070893  0.92732001    -0.02000
C2025       C  0.68404264  0.04820762  0.90059822     0.08000
C2026       C  0.66778766  0.06877744  0.89346844    -0.02100
Br2027     Br  0.66084465  0.07664028  0.85618175    -0.00700
Br2028     Br  0.63574355  0.11311728  0.90410908    -0.00800
Br2029     Br  0.72832674  0.03153855  0.93608902    -0.00700
Br2030     Br  0.71242545  0.07834887  0.98216461    -0.00700
C2031       C  0.67802360  0.03126317  0.57142010    -0.01800
C2032       C  0.68194514  0.04214867  0.59858886     0.07800
C2033       C  0.67812272  0.07180943  0.60520092    -0.01900
C2034       C  0.66700082  0.08753722  0.58519494    -0.02000
C2035       C  0.65705850  0.07224916  0.55922031     0.08000
C2036       C  0.66143768  0.04313255  0.55275791    -0.02100
Br2037     Br  0.64171100  0.01671035  0.51978904    -0.00700
Br2038     Br  0.69795927  0.50262156  0.55954046    -0.00800
Br2039     Br  0.66140376  0.12760892  0.59441461    -0.00700
Br2040     Br  0.68583588  0.09049380  0.64158420    -0.00700
C2041       C  0.83599791  0.28397846  0.70985011    -0.01800
C2042       C  0.81062881  0.27428849  0.68834945     0.07800
C2043       C  0.78851178  0.23835490  0.68264514    -0.01900
C2044       C  0.79152079  0.21272036  0.69804901    -0.02000
C2045       C  0.81477263  0.22218477  0.72107150     0.08000
C2046       C  0.83732527  0.25839956  0.72651699    -0.02100
Br2047     Br  0.87611441  0.27385347  0.75278482    -0.00700
Br2048     Br  0.87370384  0.33199881  0.71362862    -0.00800
Br2049     Br  0.76605897  0.16534501  0.68493670    -0.00700
Br2050     Br  0.75747581  0.22415242  0.65100421    -0.00700
C2051       C  0.82387457  0.22422437  0.80965928    -0.01800
C2052       C  0.80481908  0.21340204  0.78482768     0.07800
C2053       C  0.77156940  0.21465793  0.78332723    -0.01900
C2054       C  0.76187789  0.23062443  0.80481712    -0.02000
C2055       C  0.78550969  0.24516243  0.82735595     0.08000
C2056       C  0.80849678  0.23118657  0.83156342    -0.02100
Br2057     Br  0.80229945  0.20366523  0.86334798    -0.00700
Br2058     Br  0.87361505  0.23782075  0.81515791    -0.00800
Br2059     Br  0.71159764  0.21761928  0.80959958    -0.00700
Br2060     Br  0.73844244  0.19394915  0.75355976    -0.00700
C2061       C  0.92809457  0.19747378  0.78239187    -0.01800
C2062       C  0.89167080  0.17884906  0.78960561     0.07800
C2063       C  0.88624455  0.17271379  0.81844188    -0.01900
C2064       C  0.91705479  0.18672275  0.83576431    -0.02000
C2065       C  0.95039042  0.19160776  0.82545794     0.08000
C2066       C  0.95304998  0.19146013  0.79737559    -0.02100
Br2067     Br  0.96919321  0.16063234  0.78266626    -0.00700
Br2068     Br  0.94231888  0.24579832  0.77542220    -0.00800
Br2069     Br  0.91339862  0.19869275  0.87292871    -0.00700
Br2070     Br  0.84155650  0.14389887  0.83736368    -0.00700
C2071       C  0.90419000  0.20299771  0.69575551    -0.01800
C2072       C  0.90083702  0.18771599  0.72190231     0.07800
C2073       C  0.92704783  0.17676807  0.72703980    -0.01900
C2074       C  0.93664977  0.16223013  0.70556171    -0.02000
C2075       C  0.94303121  0.17899796  0.68043085     0.08000
C2076       C  0.92515825  0.19857168  0.67516535    -0.02100
Br2077     Br  0.92501664  0.21480771  0.63895420    -0.00700
Br2078     Br  0.88639400  0.23494089  0.68857329    -0.00800
Br2079     Br  0.94785634  0.12548326  0.71242472    -0.00700
Br2080     Br  0.97627609  0.21505718  0.73308260    -0.00700
C2081       C  0.74050572  0.08789316  0.78797406    -0.01800
C2082       C  0.77612500  0.09740342  0.78010726     0.07800
C2083       C  0.79185647  0.07827550  0.79148983    -0.01900
C2084       C  0.77297709  0.05361165  0.81201111    -0.02000
C2085       C  0.73457554  0.03836589  0.81370007     0.08000
C2086       C  0.71835094  0.05455828  0.79876497    -0.02100
Br2087     Br  0.66647560  0.03512766  0.79753641    -0.00700
Br2088     Br  0.72875107  0.12375581  0.79781008    -0.00800
Br2089     Br  0.80119360  0.05114543  0.84196843    -0.00700
Br2090     Br  0.84021763  0.08845338  0.78197450    -0.00700
C2091       C  0.71682755  0.05450004  0.70362776    -0.01800
C2092       C  0.73224984  0.03932899  0.68671511     0.07800
C2093       C  0.77061641  0.05564055  0.68525223    -0.01900
C2094       C  0.79282514  0.08468844  0.70196348    -0.02000
C2095       C  0.77732203  0.10013950  0.71858374     0.08000
C2096       C  0.73902999  0.08533586  0.71828780    -0.02100
Br2097     Br  0.71603385  0.11015115  0.73300045    -0.00700
Br2098     Br  0.66502958  0.03712125  0.70306617    -0.00800
Br2099     Br  0.84458934  0.10377241  0.70085265    -0.00700
Br2100     Br  0.79331567  0.04168319  0.65776428    -0.00700
C2101       C  0.82426968  0.66521817  0.27797221     0.45500
H2102       H  0.81941539  0.66394209  0.29941926    -0.03600
C2103       C  0.82978728  0.66857326  0.22621844     0.45500
H2104       H  0.83132612  0.66899256  0.20390501    -0.03600
C2105       C  0.79878746  0.63032560  0.26436234    -0.17200
C2106       C  0.81546893  0.69279209  0.26601848    -0.17000
C2107       C  0.86323724  0.67452545  0.26884411    -0.17400
C2108       C  0.80105529  0.63162328  0.23676728    -0.17400
C2109       C  0.81857106  0.69506959  0.23823766    -0.16900
C2110       C  0.86703676  0.67777605  0.24031084    -0.17200
O2111       O  0.62484095  0.65754410  0.47333274    -0.72900
O2112       O  0.66085451  0.61828283  0.03177720    -0.73900
O2113       O  0.66824986  0.62444959  0.47481575    -0.62500
O2114       O  0.61689412  0.65195706  0.03100249    -0.70900
O2115       O  0.56835773  0.59930049  0.02816583    -0.70500
O2116       O  0.61764829  0.57360602  0.46990565    -0.61700
O2117       O  0.61192737  0.56613870  0.02695169    -0.74300
O2118       O  0.57427887  0.60673408  0.47123740    -0.73000
Cu2119     Cu  0.64463664  0.64029683  0.50313446     1.04600
Cu2120     Cu  0.59147990  0.58514031  0.49893254     1.04300
C2121       C  0.59372725  0.63782571  0.46264220     0.93300
C2122       C  0.64256160  0.58601553  0.03821348     0.92400
C2123       C  0.65043736  0.59463153  0.46316534     0.84600
C2124       C  0.58471690  0.62996218  0.03856174     0.90800
O2125       O  0.90285866  0.95633760  0.02303885    -0.72900
O2126       O  0.94045534  0.53616888  0.47193913    -0.73900
O2127       O  0.93363666  0.53003147  0.02951311    -0.62500
O2128       O  0.90803332  0.96274549  0.46568335    -0.70900
O2129       O  0.85480300  0.96092774  0.46494061    -0.70500
O2130       O  0.87884839  0.52556483  0.02773012    -0.61700
O2131       O  0.88624004  0.53300864  0.47029392    -0.74300
O2132       O  0.84832101  0.95177126  0.02319690    -0.73000
Cu2133     Cu  0.92357799  0.99646400  0.49758100     1.04600
Cu2134     Cu  0.86545074  0.99239299  0.49625920     1.04300
C2135       C  0.87056171  0.94185007  0.03194828     0.93300
C2136       C  0.91938462  0.54694200  0.46278085     0.92400
C2137       C  0.91035037  0.53848117  0.03828688     0.84600
C2138       C  0.87643762  0.95139847  0.45512611     0.90800
O2139       O  0.53627032  0.93685378  0.02764204    -0.72900
O2140       O  0.95822707  0.89840162  0.47165992    -0.73900
O2141       O  0.95992106  0.89380922  0.02984982    -0.62500
O2142       O  0.53490448  0.93972580  0.47125338    -0.70900
O2143       O  0.54036533  0.89200030  0.46969326    -0.70500
O2144       O  0.96375208  0.84516624  0.02617435    -0.61700
O2145       O  0.96363284  0.85054728  0.46852973    -0.74300
O2146       O  0.53956584  0.88816215  0.02807841    -0.73000
Cu2147     Cu  0.99710471  0.91900431  0.50016303     1.04600
Cu2148     Cu  0.00232096  0.86687450  0.99770403     1.04300
C2149       C  0.54956558  0.91875911  0.03758867     0.93300
C2150       C  0.94878297  0.86860898  0.46094001     0.92400
C2151       C  0.95071681  0.86272417  0.03767429     0.84600
C2152       C  0.55024814  0.92305892  0.46168103     0.90800
C2153       C  0.96726081  0.67560385  0.16066233     0.02300
C2154       C  0.50592344  0.69468396  0.16070322     0.02300
C2155       C  0.52459569  0.68826987  0.13980722    -0.18300
C2156       C  0.50631973  0.66245132  0.12006274     0.02300
C2157       C  0.96867511  0.64368558  0.12060103     0.02300
C2158       C  0.94940793  0.65059029  0.14033071    -0.18300
H2159       H  0.91994850  0.63563844  0.14017047     0.04300
H2160       H  0.55405103  0.70280774  0.13946851     0.04300
C2161       C  0.79770041  0.81932794  0.16363641     0.02300
C2162       C  0.81661112  0.79979002  0.16653457     0.02300
C2163       C  0.84199837  0.80313257  0.14673760    -0.18300
C2164       C  0.84951983  0.82527705  0.12454687     0.02300
C2165       C  0.83109646  0.84487837  0.12177803     0.02300
C2166       C  0.80575602  0.84179796  0.14133410    -0.18300
H2167       H  0.79210755  0.85722293  0.13919849     0.04300
H2168       H  0.85596390  0.78795098  0.14853092     0.04300
C2169       C  0.97727182  0.68811626  0.34413560     0.02300
C2170       C  0.51605821  0.70680009  0.34138010     0.02300
C2171       C  0.53713860  0.70272299  0.36185489    -0.18300
C2172       C  0.52160068  0.67748266  0.38205542     0.02300
C2173       C  0.98323048  0.65687381  0.38339983     0.02300
C2174       C  0.96212044  0.66299350  0.36474184    -0.18300
H2175       H  0.93291805  0.64684796  0.36599407     0.04300
H2176       H  0.56652529  0.71733312  0.36064340     0.04300
C2177       C  0.79544223  0.77961791  0.34288800     0.02300
C2178       C  0.78489319  0.80530248  0.33581548     0.02300
C2179       C  0.80088352  0.83779660  0.35000374    -0.18300
C2180       C  0.82583088  0.84560365  0.37130540     0.02300
C2181       C  0.83669562  0.82094110  0.37824075     0.02300
C2182       C  0.82150926  0.78908621  0.36436157    -0.18300
H2183       H  0.83177576  0.77210646  0.37075150     0.04300
H2184       H  0.79278534  0.85714110  0.34497923     0.04300
C2185       C  0.71423974  0.51815221  0.33804064     0.02300
C2186       C  0.69074709  0.98063375  0.33877482     0.02300
C2187       C  0.66860988  0.96675623  0.36182298    -0.18300
C2188       C  0.66488903  0.98793198  0.38155785     0.02300
C2189       C  0.68772070  0.52498679  0.38054326     0.02300
C2190       C  0.71311535  0.53898772  0.35963526    -0.18300
H2191       H  0.73039379  0.56716112  0.35895463     0.04300
H2192       H  0.65151157  0.93866707  0.36345142     0.04300
C2193       C  0.70962240  0.51660471  0.16429926     0.02300
C2194       C  0.68120900  0.98108223  0.16714355     0.02300
C2195       C  0.65602292  0.96557748  0.14608652    -0.18300
C2196       C  0.65680462  0.98406442  0.12301385     0.02300
C2197       C  0.68445750  0.51933863  0.12012216     0.02300
C2198       C  0.71150111  0.53418040  0.14009194    -0.18300
H2199       H  0.73277639  0.56106987  0.13779289     0.04300
H2200       H  0.63523692  0.93832997  0.14764230     0.04300
C2201       C  0.65396981  0.82671207  0.27410685     0.45500
H2202       H  0.65079444  0.82391302  0.29617678    -0.03600
C2203       C  0.65600128  0.83045333  0.22202647     0.45500
H2204       H  0.65666540  0.83303745  0.19977397    -0.03600
C2205       C  0.61850024  0.79840635  0.26058529    -0.17200
C2206       C  0.66120755  0.86330496  0.26378525    -0.17000
C2207       C  0.68505546  0.82097823  0.26207928    -0.17400
C2208       C  0.61911890  0.79984874  0.23270917    -0.17400
C2209       C  0.66179252  0.86490420  0.23592478    -0.16900
C2210       C  0.68674616  0.82377261  0.23390396    -0.17200
C2211       C  0.64898600  0.93932889  0.20538786    -0.01800
C2212       C  0.67968568  0.95640307  0.18846342     0.07800
C2213       C  0.70232771  0.94142567  0.18547914    -0.01900
C2214       C  0.69734469  0.91283952  0.20135593    -0.02000
C2215       C  0.66829805  0.89704110  0.21996004     0.08000
C2216       C  0.64383939  0.91058060  0.22141745    -0.02100
Br2217     Br  0.59989780  0.88734643  0.24205471    -0.00700
Br2218     Br  0.60989886  0.95043374  0.20292812    -0.00800
Br2219     Br  0.73114185  0.89623336  0.19582056    -0.00700
Br2220     Br  0.73507764  0.95470297  0.15509857    -0.00700
C2221       C  0.64890562  0.92824827  0.30973811    -0.01800
C2222       C  0.68479135  0.95453600  0.31618572     0.07800
C2223       C  0.71289909  0.94997361  0.30483564    -0.01900
C2224       C  0.70502586  0.92400543  0.28477643    -0.02000
C2225       C  0.66969270  0.89469966  0.28227264     0.08000
C2226       C  0.64257065  0.89638875  0.29780177    -0.02100
Br2227     Br  0.59890541  0.85535600  0.30723221    -0.00700
Br2228     Br  0.60779623  0.93516300  0.31665692    -0.00800
Br2229     Br  0.74392522  0.93006175  0.26214585    -0.00700
Br2230     Br  0.76012042  0.97068334  0.32099257    -0.00700
C2231       C  0.71221411  0.82060777  0.30864584    -0.01800
C2232       C  0.70920719  0.81266214  0.28051992     0.07800
C2233       C  0.72888859  0.79547840  0.27173286    -0.01900
C2234       C  0.75785018  0.79809661  0.28798042    -0.02000
C2235       C  0.75554457  0.80040469  0.31623936     0.08000
C2236       C  0.72750367  0.80596876  0.32579585    -0.02100
Br2237     Br  0.70623926  0.78934243  0.36041724    -0.00700
Br2238     Br  0.70919327  0.85938031  0.32438643    -0.00800
Br2239     Br  0.80049879  0.80209031  0.27097342    -0.00700
Br2240     Br  0.71133892  0.75964924  0.24428115    -0.00700
C2241       C  0.56295133  0.71915181  0.30597244    -0.01800
C2242       C  0.53662889  0.72675731  0.31680342     0.07800
C2243       C  0.53486627  0.75576983  0.30611668    -0.01900
C2244       C  0.55643781  0.77363937  0.28345685    -0.02000
C2245       C  0.58797921  0.77111594  0.27754521     0.08000
C2246       C  0.59180804  0.74456680  0.29104392    -0.02100
Br2247     Br  0.63683990  0.74396544  0.29420396    -0.00700
Br2248     Br  0.56091248  0.67455984  0.31205849    -0.00800
Br2249     Br  0.54197074  0.80044096  0.26094310    -0.00700
Br2250     Br  0.50966608  0.77565569  0.32539986    -0.00700
C2251       C  0.70599368  0.80234522  0.19133013    -0.01800
C2252       C  0.71574786  0.82258033  0.21578618     0.07800
C2253       C  0.75385403  0.84275372  0.22175449    -0.01900
C2254       C  0.78003625  0.84185770  0.20450453    -0.02000
C2255       C  0.76961229  0.81807849  0.18276839     0.08000
C2256       C  0.73255002  0.79987949  0.17544804    -0.02100
Br2257     Br  0.71843394  0.77466087  0.14143810    -0.00700
Br2258     Br  0.65672897  0.77673153  0.17817669    -0.00800
Br2259     Br  0.82999726  0.87853149  0.20727471    -0.00700
Br2260     Br  0.77290192  0.87482873  0.25185143    -0.00700
C2261       C  0.54028070  0.75643065  0.17992794    -0.01800
C2262       C  0.52985368  0.72058220  0.18201875     0.07800
C2263       C  0.55038256  0.71128497  0.19947476    -0.01900
C2264       C  0.57961558  0.73688547  0.21505981    -0.02000
C2265       C  0.58861572  0.77267217  0.21463448     0.08000
C2266       C  0.56933421  0.78213349  0.19585323    -0.02100
Br2267     Br  0.58458607  0.83048453  0.18931799    -0.00700
Br2268     Br  0.51690875  0.77078762  0.15321145    -0.00800
Br2269     Br  0.61208842  0.72315577  0.23136229    -0.00700
Br2270     Br  0.54112575  0.66345228  0.19981474    -0.00700
C2271       C  0.92734900  0.84703816  0.41363219    -0.01800
C2272       C  0.92006067  0.85478343  0.43983935     0.07800
C2273       C  0.88478791  0.84841695  0.44605026    -0.01900
C2274       C  0.85658958  0.83176035  0.42702698    -0.02000
C2275       C  0.86451180  0.82827062  0.39995709     0.08000
C2276       C  0.89992307  0.83478784  0.39347641    -0.02100
Br2277     Br  0.91113510  0.82724266  0.35710000    -0.00700
Br2278     Br  0.97571616  0.85615638  0.40474660    -0.00800
Br2279     Br  0.80701624  0.80950214  0.43897711    -0.00700
Br2280     Br  0.87495569  0.86443190  0.47971441    -0.00700
C2281       C  0.63783164  0.94987906  0.42245503    -0.01800
C2282       C  0.63532600  0.97090706  0.40194304     0.07800
C2283       C  0.60357355  0.97400730  0.39997255    -0.01900
C2284       C  0.57654402  0.95966760  0.41994361    -0.02000
C2285       C  0.57963013  0.93968884  0.44119728     0.08000
C2286       C  0.61043815  0.93468027  0.44212565    -0.02100
Br2287     Br  0.61681328  0.90851989  0.47099579    -0.00700
Br2288     Br  0.67798208  0.94024738  0.42287184    -0.00800
Br2289     Br  0.53450742  0.96629963  0.41692680    -0.00700
Br2290     Br  0.59437061  0.99348844  0.36796268    -0.00700
C2291       C  0.57516567  0.95954156  0.07780774    -0.01800
C2292       C  0.57584011  0.93359575  0.06063233     0.07800
C2293       C  0.60142173  0.92207926  0.06617425    -0.01900
C2294       C  0.62711068  0.93784255  0.08716950    -0.02000
C2295       C  0.62782961  0.96537324  0.10254777     0.08000
C2296       C  0.60048723  0.97448216  0.09899319    -0.02100
Br2297     Br  0.59650128  0.50558954  0.12451090    -0.00700
Br2298     Br  0.53925116  0.47427949  0.07419856    -0.00800
Br2299     Br  0.66220612  0.92227499  0.09441490    -0.00700
Br2300     Br  0.60341205  0.88585280  0.04496259    -0.00700
C2301       C  0.86436984  0.81235806  0.07820568    -0.01800
C2302       C  0.87636035  0.82757487  0.10397761     0.07800
C2303       C  0.91401905  0.84685195  0.10924571    -0.01900
C2304       C  0.93859423  0.85752886  0.08754648    -0.02000
C2305       C  0.92568754  0.84748761  0.06081769     0.08000
C2306       C  0.88909582  0.82203449  0.05667003    -0.02100
Br2307     Br  0.87340815  0.79888879  0.02218138    -0.00700
Br2308     Br  0.81483778  0.77601710  0.07331813    -0.00800
Br2309     Br  0.98997363  0.88369897  0.09463738    -0.00700
Br2310     Br  0.93199121  0.85699503  0.14601465    -0.00700
C2311       C  0.92365159  0.59727318  0.05538026    -0.01800
C2312       C  0.91996674  0.56402818  0.06043114     0.07800
C2313       C  0.92322507  0.55481473  0.08710433    -0.01900
C2314       C  0.93650231  0.58049147  0.10750915    -0.02000
C2315       C  0.94806980  0.61554896  0.10077416     0.08000
C2316       C  0.93849173  0.62335469  0.07547032    -0.02100
Br2317     Br  0.94231434  0.66847373  0.06940891    -0.00700
Br2318     Br  0.90557512  0.60619734  0.02212551    -0.00800
Br2319     Br  0.43617099  0.56663210  0.14500969    -0.00700
Br2320     Br  0.90519325  0.50663123  0.09629105    -0.00700
C2321       C  0.95915263  0.60944378  0.45051712    -0.01800
C2322       C  0.93361409  0.57516133  0.44274429     0.07800
C2323       C  0.92323886  0.56749413  0.41539319    -0.01900
C2324       C  0.94003215  0.59367776  0.39572662    -0.02000
C2325       C  0.96437953  0.62865878  0.40382168     0.08000
C2326       C  0.97091812  0.63652003  0.43164611    -0.02100
Br2327     Br  0.49053971  0.68478902  0.44398176    -0.00700
Br2328     Br  0.98087827  0.61932283  0.48610059    -0.00800
Br2329     Br  0.93011025  0.58055838  0.35795874    -0.00700
Br2330     Br  0.88783783  0.52048307  0.40472311    -0.00700
C2331       C  0.82605901  0.90247082  0.42888852    -0.01800
C2332       C  0.86362618  0.92678357  0.43163371     0.07800
C2333       C  0.88760675  0.92824346  0.41106482    -0.01900
C2334       C  0.87446129  0.90401838  0.38935245    -0.02000
C2335       C  0.83768366  0.87778784  0.38827193     0.08000
C2336       C  0.81332296  0.87902136  0.40699577    -0.02100
Br2337     Br  0.76212384  0.84723908  0.40413258    -0.00700
Br2338     Br  0.79085936  0.89800668  0.45591415    -0.00800
Br2339     Br  0.90621003  0.90755528  0.36024346    -0.00700
Br2340     Br  0.93818839  0.96365923  0.41170387    -0.00700
C2341       C  0.82456755  0.88646110  0.05557395    -0.01800
C2342       C  0.86017276  0.91525395  0.05384669     0.07800
C2343       C  0.88560054  0.91995484  0.07461667    -0.01900
C2344       C  0.87395268  0.89993768  0.09820184    -0.02000
C2345       C  0.83955653  0.87005709  0.09914653     0.06100
C2346       C  0.81465473  0.86343167  0.07777968    -0.02100
Br2347     Br  0.76662715  0.82338546  0.07915900    -0.00700
Br2348     Br  0.79013860  0.87609850  0.02652833    -0.00800
Br2349     Br  0.90333964  0.91643474  0.13056006    -0.00700
Br2350     Br  0.93719612  0.95168935  0.07134880    -0.00700
C2351       C  0.55944768  0.66791273  0.05624830    -0.01800
C2352       C  0.56612120  0.63951325  0.05977959     0.07800
C2353       C  0.55443495  0.61972939  0.08370579    -0.01900
C2354       C  0.53684858  0.62856883  0.10393314    -0.02000
C2355       C  0.52800228  0.65538677  0.09962991     0.08000
C2356       C  0.54061907  0.67589864  0.07612485    -0.02100
Br2357     Br  0.53393912  0.71618820  0.07183436    -0.00700
Br2358     Br  0.57397649  0.69466451  0.02348767    -0.00800
Br2359     Br  0.52849955  0.60630696  0.13861150    -0.00700
Br2360     Br  0.56272872  0.58049470  0.08911401    -0.00700
C2361       C  0.58815584  0.68568299  0.43776561    -0.01800
C2362       C  0.57991413  0.65019919  0.43980167     0.07800
C2363       C  0.55805183  0.62613219  0.41938267    -0.01900
C2364       C  0.54355856  0.63715568  0.39846387    -0.02000
C2365       C  0.54575970  0.67018477  0.39974679     0.08000
C2366       C  0.57004194  0.69530860  0.41835574    -0.02100
Br2367     Br  0.57807260  0.74275215  0.41774097    -0.00700
Br2368     Br  0.62343192  0.72166992  0.46128632    -0.00800
Br2369     Br  0.02331538  0.60800632  0.36692809    -0.00700
Br2370     Br  0.04745338  0.57783174  0.41911376    -0.00700
C2371       C  0.65988385  0.58711552  0.41412572    -0.01800
C2372       C  0.66723367  0.58397665  0.44143100     0.07800
C2373       C  0.68924999  0.56902470  0.44772447    -0.01900
C2374       C  0.69726146  0.55086335  0.42764466    -0.02000
C2375       C  0.68463689  0.54897605  0.40086178     0.08000
C2376       C  0.66924971  0.57033289  0.39378141    -0.02100
Br2377     Br  0.66247910  0.57850426  0.35653712    -0.00700
Br2378     Br  0.64003627  0.61706509  0.40460048    -0.00800
Br2379     Br  0.72816197  0.53128934  0.43629515    -0.00700
Br2380     Br  0.71139729  0.57676873  0.48298776    -0.00700
C2381       C  0.67861866  0.53098374  0.07117290    -0.01800
C2382       C  0.68252913  0.54204521  0.09830436     0.07800
C2383       C  0.67854336  0.57166046  0.10472963    -0.01900
C2384       C  0.66715115  0.58707265  0.08464041    -0.02000
C2385       C  0.65710696  0.57154882  0.05873911     0.08000
C2386       C  0.66188823  0.54261558  0.05239026    -0.02100
Br2387     Br  0.64266725  0.51621475  0.01936381    -0.00700
Br2388     Br  0.69954001  0.00320328  0.05928047    -0.00800
Br2389     Br  0.66145585  0.62714488  0.09365791    -0.00700
Br2390     Br  0.68632778  0.59067991  0.14100216    -0.00700
C2391       C  0.83605568  0.78394466  0.21006901    -0.01800
C2392       C  0.81084198  0.77410200  0.18844837     0.07800
C2393       C  0.78895482  0.73814857  0.18271512    -0.01900
C2394       C  0.79194090  0.71262527  0.19826214    -0.02000
C2395       C  0.81502911  0.72223089  0.22138586     0.08000
C2396       C  0.83748158  0.75846442  0.22679386    -0.02100
Br2397     Br  0.87634454  0.77404584  0.25303376    -0.00700
Br2398     Br  0.87338914  0.83208415  0.21399628    -0.00800
Br2399     Br  0.76677813  0.66523629  0.18513544    -0.00700
Br2400     Br  0.75842404  0.72377597  0.15079112    -0.00700
C2401       C  0.82398673  0.72442152  0.31011481    -0.01800
C2402       C  0.80507645  0.71366302  0.28521697     0.07800
C2403       C  0.77188925  0.71502372  0.28359731    -0.01900
C2404       C  0.76215390  0.73102701  0.30503088    -0.02000
C2405       C  0.78562990  0.74546759  0.32765410     0.08000
C2406       C  0.80856167  0.73145240  0.33196861    -0.02100
Br2407     Br  0.80222357  0.70394573  0.36378820    -0.00700
Br2408     Br  0.87364374  0.73786317  0.31576114    -0.00800
Br2409     Br  0.71185840  0.71799832  0.30975380    -0.00700
Br2410     Br  0.73885692  0.69436932  0.25376613    -0.00700
C2411       C  0.92860041  0.69812228  0.28294617    -0.01800
C2412       C  0.89213274  0.67925006  0.29005121     0.07800
C2413       C  0.88663106  0.67284056  0.31884942    -0.01900
C2414       C  0.91737851  0.68676776  0.33624588    -0.02000
C2415       C  0.95082988  0.69189765  0.32595838     0.08000
C2416       C  0.95356975  0.69206157  0.29785860    -0.02100
Br2417     Br  0.97002815  0.66168293  0.28279960    -0.00700
Br2418     Br  0.94276959  0.74653649  0.27653750    -0.00800
Br2419     Br  0.91350031  0.69869185  0.37337674    -0.00700
Br2420     Br  0.84189248  0.64371057  0.33759508    -0.00700
C2421       C  0.90428765  0.70317126  0.19606176    -0.01800
C2422       C  0.90120252  0.68822609  0.22231392     0.07800
C2423       C  0.92776436  0.67779385  0.22757136    -0.01900
C2424       C  0.93743410  0.66310120  0.20624532    -0.02000
C2425       C  0.94340702  0.67939112  0.18094360     0.08000
C2426       C  0.92521042  0.69863363  0.17549919    -0.02100
Br2427     Br  0.92469662  0.71439274  0.13917564    -0.00700
Br2428     Br  0.88645065  0.73505361  0.18873696    -0.00800
Br2429     Br  0.94931429  0.62688895  0.21345900    -0.00700
Br2430     Br  0.97667688  0.71667761  0.23339680    -0.00700
C2431       C  0.74083749  0.58835329  0.28837518    -0.01800
C2432       C  0.77642615  0.59775277  0.28050897     0.07800
C2433       C  0.79203692  0.57844536  0.29172876    -0.01900
C2434       C  0.77312607  0.55373901  0.31219550    -0.02000
C2435       C  0.73475717  0.53868765  0.31394731     0.08000
C2436       C  0.71859775  0.55502167  0.29911572    -0.02100
Br2437     Br  0.66672981  0.53578839  0.29802264    -0.00700
Br2438     Br  0.72907266  0.62426603  0.29802548    -0.00800
Br2439     Br  0.80134471  0.55100627  0.34203592    -0.00700
Br2440     Br  0.84034604  0.58852727  0.28212970    -0.00700
C2441       C  0.71718577  0.55501856  0.20361005    -0.01800
C2442       C  0.73262839  0.53972476  0.18684902     0.07800
C2443       C  0.77100591  0.55574999  0.18573984    -0.01900
C2444       C  0.79316594  0.58467366  0.20260403    -0.02000
C2445       C  0.77765846  0.60030904  0.21902652     0.08000
C2446       C  0.73937134  0.58568767  0.21848295    -0.02100
Br2447     Br  0.71638292  0.61046935  0.23326055    -0.00700
Br2448     Br  0.66544639  0.53798669  0.20258796    -0.00800
Br2449     Br  0.84491371  0.60330170  0.20209005    -0.00700
Br2450     Br  0.79386936  0.54149954  0.15861196    -0.00700
C2451       C  0.82405220  0.66540433  0.77775783     0.45500
H2452       H  0.81918811  0.66422086  0.79906555    -0.03600
C2453       C  0.82964032  0.66869787  0.72596549     0.45500
H2454       H  0.83120101  0.66912665  0.70366514    -0.03600
C2455       C  0.79859567  0.63048459  0.76416338    -0.17200
C2456       C  0.81534014  0.69300451  0.76570343    -0.17000
C2457       C  0.86298676  0.67460824  0.76864015    -0.17400
C2458       C  0.80083011  0.63177793  0.73656417    -0.17400
C2459       C  0.81850199  0.69529313  0.73794392    -0.16900
C2460       C  0.86683976  0.67774341  0.74011818    -0.17200
O2461       O  0.62380888  0.65661348  0.97323917    -0.72900
O2462       O  0.66104633  0.61896201  0.53227149    -0.73900
O2463       O  0.66726993  0.62351278  0.97426518    -0.62500
O2464       O  0.61737398  0.65265604  0.53107861    -0.70900
O2465       O  0.56866076  0.60013669  0.52788467    -0.70500
O2466       O  0.61665136  0.57265406  0.96958615    -0.61700
O2467       O  0.61195651  0.56697380  0.52720214    -0.74300
O2468       O  0.57324055  0.60579738  0.97150461    -0.73000
Cu2469     Cu  0.64396628  0.63947811  0.00282809     1.04600
Cu2470     Cu  0.59088876  0.58424843  0.99894555     1.04300
C2471       C  0.59253791  0.63686511  0.96280885     0.93300
C2472       C  0.64245045  0.58671438  0.53868112     0.92400
C2473       C  0.64936810  0.59365968  0.96266213     0.84600
C2474       C  0.58511764  0.63068298  0.53845679     0.90800
O2475       O  0.90387563  0.95621686  0.52275208    -0.72900
O2476       O  0.93981998  0.53617065  0.97217883    -0.73900
O2477       O  0.93390678  0.53001762  0.52920772    -0.62500
O2478       O  0.90649759  0.96246120  0.96606343    -0.70900
O2479       O  0.85323089  0.96058620  0.96552100    -0.70500
O2480       O  0.87908260  0.52544291  0.52715264    -0.61700
O2481       O  0.88571330  0.53324396  0.97079995    -0.74300
O2482       O  0.84927538  0.95157675  0.52258725    -0.73000
Cu2483     Cu  0.92242200  0.99643431  0.99776428     1.04600
Cu2484     Cu  0.86431787  0.99240239  0.99668502     1.04300
C2485       C  0.87149305  0.94171668  0.53150184     0.93300
C2486       C  0.91880483  0.54707527  0.96313409     0.92400
C2487       C  0.91053061  0.53844108  0.53782249     0.84600
C2488       C  0.87476456  0.95092568  0.95571174     0.90800
O2489       O  0.53558351  0.93701678  0.52767119    -0.72900
O2490       O  0.95769403  0.89734490  0.97186006    -0.73900
O2491       O  0.95979695  0.89498679  0.52966518    -0.62500
O2492       O  0.53550253  0.93916388  0.97123066    -0.70900
O2493       O  0.54111766  0.89149740  0.97009537    -0.70500
O2494       O  0.96358029  0.84626925  0.52640534    -0.61700
O2495       O  0.96374397  0.84989415  0.96820501    -0.74300
O2496       O  0.53948570  0.88865500  0.52765740    -0.73000
Cu2497     Cu  0.99688316  0.91809270  0.00011235     1.04600
Cu2498     Cu  0.00211148  0.86752056  0.49797393     1.04300
C2499       C  0.54922329  0.91909862  0.53739103     0.93300
C2500       C  0.94847048  0.86771607  0.96093573     0.92400
C2501       C  0.95053578  0.86396095  0.53765557     0.84600
C2502       C  0.55088140  0.92243895  0.96183345     0.90800
C2503       C  0.96698276  0.67533855  0.66040145     0.02300
C2504       C  0.50602322  0.69494651  0.66046885     0.02300
C2505       C  0.52489314  0.68868659  0.63965784    -0.18300
C2506       C  0.50677364  0.66311487  0.61975391     0.02300
C2507       C  0.96865481  0.64373875  0.62018872     0.02300
C2508       C  0.94925759  0.65035773  0.64000800    -0.18300
H2509       H  0.91981048  0.63522775  0.63985990     0.04300
H2510       H  0.55436008  0.70313598  0.63951175     0.04300
C2511       C  0.79771989  0.81981426  0.66355315     0.02300
C2512       C  0.81657000  0.80021139  0.66634754     0.02300
C2513       C  0.84190889  0.80361901  0.64652084    -0.18300
C2514       C  0.84935522  0.82583864  0.62441022     0.02300
C2515       C  0.83096198  0.84544764  0.62171058     0.02300
C2516       C  0.80569187  0.84235054  0.64129866    -0.18300
H2517       H  0.79202362  0.85776481  0.63921893     0.04300
H2518       H  0.85592281  0.78847352  0.64823651     0.04300
C2519       C  0.97670647  0.68812881  0.84404638     0.02300
C2520       C  0.51570549  0.70605951  0.84112031     0.02300
C2521       C  0.53656795  0.70207648  0.86181120    -0.18300
C2522       C  0.52087312  0.67669231  0.88190440     0.02300
C2523       C  0.98223416  0.65674438  0.88336557     0.02300
C2524       C  0.96132014  0.66289605  0.86456323    -0.18300
H2525       H  0.93209714  0.64678562  0.86567434     0.04300
H2526       H  0.56596418  0.71685300  0.86083550     0.04300
C2527       C  0.79434712  0.77876442  0.84337571     0.02300
C2528       C  0.78367976  0.80443622  0.83653456     0.02300
C2529       C  0.79914133  0.83655043  0.85121376    -0.18300
C2530       C  0.82390058  0.84410384  0.87258821     0.02300
C2531       C  0.83503692  0.81954975  0.87920692     0.02300
C2532       C  0.82000544  0.78786485  0.86510197    -0.18300
H2533       H  0.83021753  0.77080774  0.87140589     0.04300
H2534       H  0.79095881  0.85588955  0.84639410     0.04300
C2535       C  0.71438180  0.51780778  0.83769456     0.02300
C2536       C  0.69070609  0.98042633  0.83854385     0.02300
C2537       C  0.66882443  0.96650992  0.86168959    -0.18300
C2538       C  0.66497775  0.98762261  0.88138795     0.02300
C2539       C  0.68766020  0.52438268  0.88019434     0.02300
C2540       C  0.71301111  0.53855035  0.85926779    -0.18300
H2541       H  0.73001132  0.56675859  0.85854354     0.04300
H2542       H  0.65194383  0.93840089  0.86340431     0.04300
C2543       C  0.70865436  0.51648608  0.66468951     0.02300
C2544       C  0.68086591  0.98087500  0.66714576     0.02300
C2545       C  0.65556199  0.96539301  0.64614945    -0.18300
C2546       C  0.65631026  0.98389710  0.62308721     0.02300
C2547       C  0.68333040  0.51936993  0.62064578     0.02300
C2548       C  0.71044841  0.53411800  0.64053994    -0.18300
H2549       H  0.73177985  0.56098015  0.63821134     0.04300
H2550       H  0.63473296  0.93816794  0.64773972     0.04300
C2551       C  0.65372210  0.82642312  0.77396933     0.45500
H2552       H  0.65034861  0.82352919  0.79600791    -0.03600
C2553       C  0.65598557  0.83032923  0.72190931     0.45500
H2554       H  0.65676052  0.83298875  0.69966313    -0.03600
C2555       C  0.61838564  0.79804860  0.76037824    -0.17200
C2556       C  0.66094383  0.86302054  0.76365327    -0.17000
C2557       C  0.68493064  0.82084210  0.76204187    -0.17400
C2558       C  0.61909871  0.79967172  0.73250885    -0.17400
C2559       C  0.66165949  0.86469946  0.73580657    -0.16900
C2560       C  0.68670713  0.82368987  0.73386309    -0.17200
C2561       C  0.64883460  0.93917305  0.70544266    -0.01800
C2562       C  0.67945015  0.95621918  0.68844327     0.07800
C2563       C  0.70211406  0.94127012  0.68540509    -0.01900
C2564       C  0.69724639  0.91274269  0.70130600    -0.02000
C2565       C  0.66815562  0.89684437  0.71986688     0.08000
C2566       C  0.64363003  0.91029750  0.72132622    -0.02100
Br2567     Br  0.59947051  0.88668524  0.74168005    -0.00700
Br2568     Br  0.60998602  0.95062823  0.70337069    -0.00800
Br2569     Br  0.73128751  0.89639354  0.69588628    -0.00700
Br2570     Br  0.73472767  0.95448442  0.65494711    -0.00700
C2571       C  0.64867550  0.92787184  0.80970073    -0.01800
C2572       C  0.68460784  0.95426175  0.81599151     0.07800
C2573       C  0.71269252  0.94975006  0.80457484    -0.01900
C2574       C  0.70477749  0.92369961  0.78459908    -0.02000
C2575       C  0.66943686  0.89439407  0.78213109     0.08000
C2576       C  0.64229997  0.89605286  0.79764923    -0.02100
Br2577     Br  0.59832738  0.85498811  0.80659019    -0.00700
Br2578     Br  0.60751897  0.93456647  0.81703649    -0.00800
Br2579     Br  0.74364712  0.92975889  0.76195019    -0.00700
Br2580     Br  0.76012337  0.97094275  0.82043447    -0.00700
C2581       C  0.71162312  0.82027866  0.80876412    -0.01800
C2582       C  0.70903651  0.81259162  0.78059476     0.07800
C2583       C  0.72889116  0.79552134  0.77192320    -0.01900
C2584       C  0.75757864  0.79795446  0.78841096    -0.02000
C2585       C  0.75476922  0.79991984  0.81665774     0.08000
C2586       C  0.72658279  0.80541361  0.82599627    -0.02100
Br2587     Br  0.70520371  0.78908463  0.86064105    -0.00700
Br2588     Br  0.70802322  0.85867767  0.82469334    -0.00800
Br2589     Br  0.80049850  0.80209631  0.77173009    -0.00700
Br2590     Br  0.71185364  0.75998419  0.74425051    -0.00700
C2591       C  0.56324798  0.71882900  0.80607289    -0.01800
C2592       C  0.53655628  0.72613576  0.81662234     0.07800
C2593       C  0.53456776  0.75493473  0.80569715    -0.01900
C2594       C  0.55617318  0.77280557  0.78304734    -0.02000
C2595       C  0.58789580  0.77056030  0.77729343     0.08000
C2596       C  0.59195592  0.74422775  0.79097280    -0.02100
Br2597     Br  0.63704317  0.74369633  0.79386014    -0.00700
Br2598     Br  0.56193517  0.67464873  0.81278239    -0.00800
Br2599     Br  0.54162461  0.79941384  0.76037019    -0.00700
Br2600     Br  0.50924438  0.77482509  0.82478644    -0.00700
C2601       C  0.70603047  0.80253584  0.69122476    -0.01800
C2602       C  0.71573798  0.82261084  0.71576571     0.07800
C2603       C  0.75381909  0.84277875  0.72180788    -0.01900
C2604       C  0.78003690  0.84200289  0.70455067    -0.02000
C2605       C  0.76964454  0.81842499  0.68269017     0.08000
C2606       C  0.73263550  0.80030425  0.67527005    -0.02100
Br2607     Br  0.71870933  0.77561514  0.64101248    -0.00700
Br2608     Br  0.65678984  0.77677443  0.67803578    -0.00800
Br2609     Br  0.83000745  0.87861650  0.70749000    -0.00700
Br2610     Br  0.77280481  0.87468328  0.75201318    -0.00700
C2611       C  0.54038880  0.75656617  0.67968441    -0.01800
C2612       C  0.52979520  0.72069676  0.68185780     0.07800
C2613       C  0.55025437  0.71129320  0.69929222    -0.01900
C2614       C  0.57954643  0.73682678  0.71483761    -0.02000
C2615       C  0.58867442  0.77263222  0.71436680     0.08000
C2616       C  0.56956499  0.78221584  0.69552039    -0.02100
Br2617     Br  0.58527059  0.83059371  0.68866985    -0.00700
Br2618     Br  0.51711430  0.77099293  0.65292313    -0.00800
Br2619     Br  0.61199026  0.72300005  0.73107173    -0.00700
Br2620     Br  0.54092116  0.66343686  0.69958006    -0.00700
C2621       C  0.92653964  0.84670528  0.91356939    -0.01800
C2622       C  0.91943058  0.85378563  0.94004097     0.07800
C2623       C  0.88407027  0.84681933  0.94668897    -0.01900
C2624       C  0.85563753  0.83017086  0.92783381    -0.02000
C2625       C  0.86322919  0.82696510  0.90063255     0.08000
C2626       C  0.89869968  0.83403329  0.89371705    -0.02100
Br2627     Br  0.90940530  0.82660900  0.85715035    -0.00700
Br2628     Br  0.97523820  0.85767870  0.90386910    -0.00800
Br2629     Br  0.80619425  0.80773074  0.94009393    -0.00700
Br2630     Br  0.87445133  0.86230119  0.98067749    -0.00700
C2631       C  0.63847179  0.94977531  0.92243820    -0.01800
C2632       C  0.63553303  0.97044551  0.90182492     0.07800
C2633       C  0.60340482  0.97287260  0.89972907    -0.01900
C2634       C  0.57635546  0.95818373  0.91965507    -0.02000
C2635       C  0.58004021  0.93889008  0.94117107     0.08000
C2636       C  0.61122891  0.93451163  0.94221558    -0.02100
Br2637     Br  0.61828831  0.90915474  0.97135804    -0.00700
Br2638     Br  0.67899306  0.94068687  0.92280995    -0.00800
Br2639     Br  0.53337234  0.96321004  0.91618771    -0.00700
Br2640     Br  0.59385925  0.99205437  0.86769016    -0.00700
C2641       C  0.57494261  0.95986152  0.57769623    -0.01800
C2642       C  0.57554274  0.93390645  0.56046083     0.07800
C2643       C  0.60100317  0.92223337  0.56605584    -0.01900
C2644       C  0.62659593  0.93781403  0.58714469    -0.02000
C2645       C  0.62730273  0.96525655  0.60262416     0.08000
C2646       C  0.60006251  0.97448530  0.59905117    -0.02100
Br2647     Br  0.59536730  0.50592259  0.62490658    -0.00700
Br2648     Br  0.53931255  0.47591974  0.57380666    -0.00800
Br2649     Br  0.66166291  0.92219535  0.59435702    -0.00700
Br2650     Br  0.60299434  0.88602737  0.54482006    -0.00700
C2651       C  0.86432362  0.81310594  0.57814063    -0.01800
C2652       C  0.87624496  0.82836700  0.60389047     0.07800
C2653       C  0.91383894  0.84813496  0.60913878    -0.01900
C2654       C  0.93838399  0.85887634  0.58745314    -0.02000
C2655       C  0.92545857  0.84890263  0.56072426     0.08000
C2656       C  0.88892389  0.82335699  0.55652075    -0.02100
Br2657     Br  0.87308218  0.80100441  0.52177179    -0.00700
Br2658     Br  0.81524208  0.77575541  0.57347048    -0.00800
Br2659     Br  0.98973389  0.88485552  0.59460206    -0.00700
Br2660     Br  0.93176302  0.85875059  0.64589782    -0.00700
C2661       C  0.92379321  0.59727985  0.55486843    -0.01800
C2662       C  0.92000593  0.56400372  0.55995253     0.07800
C2663       C  0.92324031  0.55481342  0.58663063    -0.01900
C2664       C  0.93663920  0.58052074  0.60701737    -0.02000
C2665       C  0.94820268  0.61559143  0.60029274     0.08000
C2666       C  0.93863304  0.62337445  0.57496536    -0.02100
Br2667     Br  0.94242981  0.66847445  0.56888149    -0.00700
Br2668     Br  0.90585512  0.60622319  0.52154987    -0.00800
Br2669     Br  0.43657829  0.56767646  0.64434465    -0.00700
Br2670     Br  0.90492665  0.50659411  0.59584072    -0.00700
C2671       C  0.95821769  0.60966159  0.95061650    -0.01800
C2672       C  0.93296250  0.57522103  0.94296748     0.07800
C2673       C  0.92270341  0.56733839  0.91560534    -0.01900
C2674       C  0.93913533  0.59349986  0.89585302    -0.02000
C2675       C  0.96323593  0.62858860  0.90383886     0.08000
C2676       C  0.96970983  0.63661097  0.93163941    -0.02100
Br2677     Br  0.48951192  0.68380756  0.94368946    -0.00700
Br2678     Br  0.98022216  0.61994625  0.98608902    -0.00800
Br2679     Br  0.92900185  0.58023556  0.85812458    -0.00700
Br2680     Br  0.88805416  0.52004622  0.90503873    -0.00700
C2681       C  0.82420835  0.90132556  0.93007057    -0.01800
C2682       C  0.86174289  0.92592487  0.93247871     0.07800
C2683       C  0.88556068  0.92725193  0.91183561    -0.01900
C2684       C  0.87233757  0.90269141  0.89036993    -0.02000
C2685       C  0.83568922  0.87617083  0.88965913     0.08000
C2686       C  0.81140651  0.87736513  0.90849107    -0.02100
Br2687     Br  0.76026451  0.84506286  0.90606912    -0.00700
Br2688     Br  0.78917844  0.89740906  0.95704320    -0.00800
Br2689     Br  0.90374696  0.90628312  0.86099754    -0.00700
Br2690     Br  0.93599756  0.96306214  0.91194479    -0.00700
C2691       C  0.82558317  0.88605708  0.55474592    -0.01800
C2692       C  0.86093903  0.91526867  0.55349251     0.07800
C2693       C  0.88580058  0.92062428  0.57484803    -0.01900
C2694       C  0.87364795  0.90083009  0.59851064    -0.02000
C2695       C  0.83947398  0.87063623  0.59909999     0.06100
C2696       C  0.81522459  0.86335958  0.57717092    -0.02100
Br2697     Br  0.76747678  0.82289094  0.57808090    -0.00700
Br2698     Br  0.79242741  0.87457497  0.52468234    -0.00800
Br2699     Br  0.90206875  0.91773777  0.63127711    -0.00700
Br2700     Br  0.93736290  0.95274020  0.57215070    -0.00700
C2701       C  0.56039242  0.66888022  0.55626105    -0.01800
C2702       C  0.56657215  0.64018075  0.55966120     0.07800
C2703       C  0.55466526  0.62022236  0.58348881    -0.01900
C2704       C  0.53719597  0.62914078  0.60373378    -0.02000
C2705       C  0.52859115  0.65612184  0.59945743     0.08000
C2706       C  0.54157867  0.67687727  0.57610784    -0.02100
Br2707     Br  0.53548557  0.71752115  0.57201560    -0.00700
Br2708     Br  0.57567063  0.69608473  0.52372264    -0.00800
Br2709     Br  0.52881759  0.60685330  0.63840701    -0.00700
Br2710     Br  0.56251662  0.58069045  0.58875009    -0.00700
C2711       C  0.58689133  0.68471897  0.93797587    -0.01800
C2712       C  0.57847443  0.64917905  0.94008879     0.07800
C2713       C  0.55645361  0.62507486  0.91974142    -0.01900
C2714       C  0.54247347  0.63625391  0.89859079    -0.02000
C2715       C  0.54491281  0.66938364  0.89971129     0.08000
C2716       C  0.56901653  0.69444102  0.91843331    -0.02100
Br2717     Br  0.57707651  0.74190263  0.91782061    -0.00700
Br2718     Br  0.62198430  0.72065672  0.96162601    -0.00800
Br2719     Br  0.02203775  0.60771460  0.86726982    -0.00700
Br2720     Br  0.04395057  0.57676638  0.92011712    -0.00700
C2721       C  0.65804137  0.58526810  0.91356409    -0.01800
C2722       C  0.66604992  0.58289277  0.94086851     0.07800
C2723       C  0.68885000  0.56877535  0.94713668    -0.01900
C2724       C  0.69700492  0.55057132  0.92717338    -0.02000
C2725       C  0.68414895  0.54822537  0.90041423     0.08000
C2726       C  0.66799684  0.56889090  0.89327028    -0.02100
Br2727     Br  0.66118390  0.57685858  0.85598438    -0.00700
Br2728     Br  0.63640494  0.61363873  0.90388462    -0.00800
Br2729     Br  0.72825466  0.53141806  0.93595721    -0.00700
Br2730     Br  0.71184652  0.57773681  0.98214359    -0.00700
C2731       C  0.67750074  0.53106470  0.57171362    -0.01800
C2732       C  0.68151580  0.54213895  0.59884873     0.07800
C2733       C  0.67774667  0.57186740  0.60531056    -0.01900
C2734       C  0.66658351  0.58747025  0.58522382    -0.02000
C2735       C  0.65654022  0.57200614  0.55930465     0.08000
C2736       C  0.66088939  0.54283667  0.55297622    -0.02100
Br2737     Br  0.64117070  0.51628061  0.52005905    -0.00700
Br2738     Br  0.69856674  0.00294424  0.55912038    -0.00800
Br2739     Br  0.66110289  0.62765354  0.59427675    -0.00700
Br2740     Br  0.68555436  0.59080089  0.64161704    -0.00700
C2741       C  0.83608807  0.78425862  0.70978902    -0.01800
C2742       C  0.81083973  0.77446148  0.68820458     0.07800
C2743       C  0.78890398  0.73851306  0.68246518    -0.01900
C2744       C  0.79182466  0.71294374  0.69801889    -0.02000
C2745       C  0.81499390  0.72250822  0.72109425     0.08000
C2746       C  0.83747247  0.75875065  0.72650169    -0.02100
Br2747     Br  0.87628416  0.77437218  0.75276036    -0.00700
Br2748     Br  0.87358529  0.83235818  0.71362832    -0.00800
Br2749     Br  0.76630000  0.66549149  0.68507345    -0.00700
Br2750     Br  0.75836003  0.72422889  0.65054642    -0.00700
C2751       C  0.82434032  0.72517759  0.80954582    -0.01800
C2752       C  0.80501632  0.71394321  0.78485545     0.07800
C2753       C  0.77157197  0.71485259  0.78348710    -0.01900
C2754       C  0.76173569  0.73059705  0.80505342    -0.02000
C2755       C  0.78538985  0.74522568  0.82757077     0.08000
C2756       C  0.80891567  0.73181960  0.83157445    -0.02100
Br2757     Br  0.80195509  0.70294685  0.86262457    -0.00700
Br2758     Br  0.87405992  0.73865432  0.81496896    -0.00800
Br2759     Br  0.71145998  0.71767359  0.80973483    -0.00700
Br2760     Br  0.73855323  0.69427533  0.75365788    -0.00700
C2761       C  0.92825255  0.69786584  0.78269206    -0.01800
C2762       C  0.89180899  0.67932366  0.78987802     0.07800
C2763       C  0.88632534  0.67321907  0.81870419    -0.01900
C2764       C  0.91710225  0.68722705  0.83606583    -0.02000
C2765       C  0.95045724  0.69206819  0.82580928     0.08000
C2766       C  0.95309863  0.69175790  0.79773061    -0.02100
Br2767     Br  0.96852874  0.66027401  0.78325490    -0.00700
Br2768     Br  0.94275035  0.74621092  0.77554916    -0.00800
Br2769     Br  0.91333729  0.69927569  0.87318113    -0.00700
Br2770     Br  0.84160331  0.64419731  0.83751421    -0.00700
C2771       C  0.90450872  0.70327806  0.69609503    -0.01800
C2772       C  0.90103094  0.68790269  0.72220414     0.07800
C2773       C  0.92706527  0.67672277  0.72732946    -0.01900
C2774       C  0.93658833  0.66215079  0.70582158    -0.02000
C2775       C  0.94303334  0.67896195  0.68069884     0.08000
C2776       C  0.92536061  0.69873027  0.67548267    -0.02100
Br2777     Br  0.92529267  0.71507736  0.63930215    -0.00700
Br2778     Br  0.88702794  0.73548407  0.68902176    -0.00800
Br2779     Br  0.94781541  0.62541306  0.71268008    -0.00700
Br2780     Br  0.97640907  0.71475652  0.73347446    -0.00700
C2781       C  0.74078149  0.58821419  0.78821734    -0.01800
C2782       C  0.77642122  0.59784993  0.78034810     0.07800
C2783       C  0.79219447  0.57866738  0.79155752    -0.01900
C2784       C  0.77332269  0.55382048  0.81196409    -0.02000
C2785       C  0.73490781  0.53848982  0.81362428     0.08000
C2786       C  0.71865817  0.55475224  0.79880643    -0.02100
Br2787     Br  0.66676816  0.53517585  0.79750532    -0.00700
Br2788     Br  0.72897060  0.62396416  0.79831545    -0.00800
Br2789     Br  0.80153647  0.55115816  0.84184664    -0.00700
Br2790     Br  0.84057565  0.58897720  0.78197635    -0.00700
C2791       C  0.71663029  0.55500101  0.70400623    -0.01800
C2792       C  0.73186467  0.53959352  0.68714857     0.07800
C2793       C  0.77021722  0.55569382  0.68568414    -0.01900
C2794       C  0.79259598  0.58481106  0.70229391    -0.02000
C2795       C  0.77728639  0.60047068  0.71888515     0.08000
C2796       C  0.73900208  0.58581410  0.71864844    -0.02100
Br2797     Br  0.71624061  0.61078636  0.73345730    -0.00700
Br2798     Br  0.66489156  0.53798067  0.70338654    -0.00800
Br2799     Br  0.84433793  0.60372586  0.70109386    -0.00700
Br2800     Br  0.79266727  0.54127433  0.65833909    -0.00700
loop_ 
_geom_bond_atom_site_label_1 
_geom_bond_atom_site_label_2 
_geom_bond_distance 
_geom_bond_site_symmetry_2 
_ccdc_geom_bond_type 
C1            H2   1.071       .  S
C1            C7   1.558       .  S
C1            C6   1.544       .  S
C1            C5   1.526       .  S
C3            H4   1.105       .  S
C3            C9   1.566       .  S
C3            C8   1.568       .  S
C3           C10   1.576       .  S
C5            C8   1.368       .  D
C5          C332   1.506       .  S
C6            C9   1.380       .  D
C6          C302   1.522       .  S
C7           C10   1.421       .  D
C7          C312   1.537       .  S
C8          C345   1.512       .  S
C9          C295   1.519       .  S
C10         C322   1.566       .  S
O11         Cu19   2.013       .  S
O11          C21   1.277       .  A
O12        Cu369   2.014       .  S
O12          C22   1.279       .  A
O13         Cu19   2.028       .  S
O13          C23   1.278       .  A
O14        Cu369   2.038       .  S
O14          C24   1.281       .  A
O15        Cu370   2.010   1_554  S
O15          C24   1.277       .  A
O16         Cu20   2.022       .  S
O16          C23   1.279       .  A
O17        Cu370   2.002   1_554  S
O17          C22   1.276       .  A
O18         Cu20   1.989       .  S
O18          C21   1.275       .  A
Cu19        O362   2.015       .  S
Cu19        O364   2.036       .  S
Cu19        Cu20   2.369       .  S
Cu20        O365   2.007       .  S
Cu20        O367   1.999       .  S
C21         C262   1.487       .  S
C22         C285   1.477       .  S
C23         C272   1.483       .  S
C24         C252   1.487       .  S
O25        Cu383   1.988   1_554  S
O25          C35   1.272       .  A
O26        Cu733   1.991   1_545  S
O26          C36   1.273       .  A
O27       Cu1083   2.039   1_544  S
O27          C37   1.283       .  A
O28         Cu33   2.033       .  S
O28          C38   1.281       .  A
O29         Cu34   1.967       .  S
O29          C38   1.271       .  A
O30       Cu1084   1.976   1_544  S
O30          C37   1.270       .  A
O31        Cu734   2.026   1_545  S
O31          C36   1.281       .  A
O32        Cu384   2.047   1_554  S
O32          C35   1.284       .  A
Cu33        O375   1.988       .  S
Cu33        O726   1.992       .  S
Cu33       O1077   2.036       .  S
Cu33        Cu34   2.369       .  S
Cu34       O1080   1.975       .  S
Cu34        O731   2.025       .  S
Cu34        O382   2.049       .  S
C35         C242   1.494       .  S
C36         C222   1.472       .  S
C37         C212   1.470       .  S
C38         C232   1.490       .  S
O39       Cu1797   1.975   1_455  S
O39          C49   1.271       .  A
O40         Cu47   2.002       .  S
O40          C50   1.276       .  A
O41        Cu397   2.037       .  S
O41          C51   1.282       .  A
O42       Cu1447   2.018   1_455  S
O42          C52   1.279       .  A
O43       Cu1798   2.017       .  S
O43          C52   1.278       .  A
O44         Cu48   2.014   1_554  S
O44          C51   1.276       .  A
O45        Cu398   2.024       .  S
O45          C50   1.280       .  A
O46       Cu1448   2.026   1_554  S
O46          C49   1.280       .  A
Cu47       O1789   1.974       .  S
Cu47        O391   2.034       .  S
Cu47       O1442   2.015       .  S
Cu47       Cu398   2.366       .  S
Cu48       O1793   2.017       .  S
Cu48        O395   2.026       .  S
Cu48       O1446   2.024   1_556  S
Cu48       Cu397   2.365   1_556  S
C49         C192   1.495       .  S
C50         C172   1.479       .  S
C51         C205   1.484       .  S
C52         C185   1.495       .  S
C53         C325   1.490       .  S
C53          C58   1.400       .  A
C53        C1454   1.439       .  A
C54         C162   1.510       .  S
C54          C55   1.410       .  A
C54        C1453   1.440   1_455  A
C55          C56   1.400       .  A
C55          H60   1.085       .  S
C56         C255   1.494       .  S
C56        C1457   1.413   1_455  A
C57         C215   1.475       .  S
C57          C58   1.397       .  A
C57        C1456   1.414       .  A
C58          H59   1.086       .  S
C61         C155   1.500       .  S
C61          C62   1.432       .  A
C61          C66   1.409       .  A
C62         C292   1.497       .  S
C62          C63   1.409       .  A
C63          C64   1.398       .  A
C63          H68   1.085       .  S
C64         C202   1.493       .  S
C64          C65   1.415       .  A
C65         C245   1.489       .  S
C65          C66   1.402       .  A
C66          H67   1.085       .  S
C69         C315   1.499       .  S
C69          C74   1.409       .  A
C69        C1470   1.431       .  A
C70         C142   1.509       .  S
C70          C71   1.411       .  A
C70        C1469   1.432   1_455  A
C71          C72   1.399       .  A
C71          H76   1.085       .  S
C72         C265   1.488       .  S
C72        C1473   1.416   1_455  A
C73         C225   1.496       .  S
C73          C74   1.392       .  A
C73        C1472   1.415       .  A
C74          H75   1.083       .  S
C77         C305   1.536       .  S
C77          C78   1.439       .  A
C77          C82   1.431       .  A
C78         C135   1.495       .  S
C78          C79   1.422       .  A
C79          C80   1.401       .  A
C79          H84   1.085       .  S
C80         C235   1.496       .  S
C80          C81   1.405       .  A
C81         C175   1.499       .  S
C81          C82   1.395       .  A
C82          H83   1.074       .  S
C85         C335   1.497       .  S
C85          C90   1.418       .  A
C85         C786   1.439   1_545  A
C86         C122   1.525       .  S
C86          C87   1.416       .  A
C86         C785   1.439       .  A
C87          C88   1.405       .  A
C87          H92   1.084       .  S
C88         C182   1.498       .  S
C88         C789   1.415       .  A
C89         C275   1.502       .  S
C89          C90   1.404       .  A
C89         C788   1.415   1_545  A
C90          H91   1.085       .  S
C93         C342   1.494       .  S
C93          C98   1.406       .  A
C93         C794   1.431   1_545  A
C94         C112   1.493       .  S
C94          C95   1.399       .  A
C94         C793   1.432       .  A
C95          C96   1.394       .  A
C95         H100   1.086       .  S
C96         C195   1.482       .  S
C96         C797   1.420       .  A
C97         C282   1.497       .  S
C97          C98   1.398       .  A
C97         C796   1.420   1_545  A
C98          H99   1.085       .  S
C101        H102   1.100       .  S
C101        C107   1.569       .  S
C101        C106   1.566       .  S
C101        C105   1.548       .  S
C103        H104   1.106       .  S
C103        C109   1.562       .  S
C103        C108   1.574       .  S
C103        C110   1.572       .  S
C105        C108   1.381       .  D
C105        C145   1.521       .  S
C106        C109   1.380       .  D
C106        C125   1.537       .  S
C107        C110   1.399       .  D
C107        C132   1.534       .  S
C108        C165   1.535       .  S
C109        C115   1.521       .  S
C110        C152   1.541       .  S
C111        C112   1.417       .  A
C111        C116   1.415       .  A
C111       Br118   1.934       .  S
C112        C113   1.405       .  A
C113        C114   1.408       .  A
C113       Br120   1.936       .  S
C114        C115   1.420       .  A
C114       Br119   1.909       .  S
C115        C116   1.419       .  A
C116       Br117   1.924       .  S
C121        C122   1.418       .  A
C121        C126   1.412       .  A
C121       Br128   1.931       .  S
C122        C123   1.413       .  A
C123        C124   1.417       .  A
C123       Br130   1.909       .  S
C124        C125   1.420       .  A
C124       Br129   1.900       .  S
C125        C126   1.412       .  A
C126       Br127   1.905       .  S
C131        C132   1.423       .  A
C131        C136   1.394       .  A
C131       Br138   1.925       .  S
C132        C133   1.433       .  A
C133        C134   1.414       .  A
C133       Br140   1.922       .  S
C134        C135   1.408       .  A
C134       Br139   1.920       .  S
C135        C136   1.402       .  A
C136       Br137   1.912       .  S
C141        C142   1.413       .  A
C141        C146   1.401       .  A
C141       Br148   1.937       .  S
C142        C143   1.412       .  A
C143        C144   1.421       .  A
C143       Br150   1.924       .  S
C144        C145   1.419       .  A
C144       Br149   1.920       .  S
C145        C146   1.418       .  A
C146       Br147   1.917       .  S
C151        C152   1.432       .  A
C151        C156   1.418       .  A
C151       Br158   1.925       .  S
C152        C153   1.434       .  A
C153        C154   1.414       .  A
C153       Br160   1.925       .  S
C154        C155   1.405       .  A
C154       Br159   1.932       .  S
C155        C156   1.409       .  A
C156       Br157   1.934       .  S
C161        C162   1.413       .  A
C161        C166   1.423       .  A
C161       Br168   1.925       .  S
C162        C163   1.413       .  A
C163        C164   1.416       .  A
C163       Br170   1.934       .  S
C164        C165   1.421       .  A
C164       Br169   1.918       .  S
C165        C166   1.420       .  A
C166       Br167   1.918       .  S
C171        C172   1.412       .  A
C171        C176   1.413       .  A
C171       Br178   1.931       .  S
C172        C173   1.409       .  A
C173        C174   1.402       .  A
C173       Br180   1.929       .  S
C174        C175   1.407       .  A
C174       Br179   1.923       .  S
C175        C176   1.415       .  A
C176       Br177   1.931       .  S
C181        C182   1.410       .  A
C181        C186   1.412       .  A
C181       Br188   1.933       .  S
C182        C183   1.412       .  A
C183        C184   1.410       .  A
C183       Br190   1.926       .  S
C184        C185   1.415       .  A
C184       Br189   1.935       .  S
C185        C186   1.419       .  A
C186       Br187   1.931       .  S
C191        C192   1.428       .  A
C191        C196   1.403       .  A
C191       Br898   1.941       .  S
C192        C193   1.422       .  A
C193        C194   1.409       .  A
C193       Br200   1.934       .  S
C194        C195   1.411       .  A
C194       Br199   1.939       .  S
C195        C196   1.401       .  A
C196       Br897   1.935       .  S
Br197       C896   1.935   1_545  S
Br198       C891   1.940       .  S
C201        C202   1.408       .  A
C201        C206   1.410       .  A
C201       Br208   1.924       .  S
C202        C203   1.409       .  A
C203        C204   1.410       .  A
C203       Br210   1.931       .  S
C204        C205   1.411       .  A
C204       Br209   1.922       .  S
C205        C206   1.408       .  A
C206       Br207   1.923       .  S
C211        C212   1.409       .  A
C211        C216   1.404       .  A
C211       Br218   1.928       .  S
C212        C213   1.406       .  A
C213        C214   1.403       .  A
C213       Br220   1.918       .  S
C214        C215   1.407       .  A
C214      Br1619   1.931       .  S
C215        C216   1.406       .  A
C216       Br217   1.926       .  S
Br219      C1614   1.930       .  S
C221        C222   1.406       .  A
C221        C226   1.401       .  A
C221       Br228   1.926       .  S
C222        C223   1.408       .  A
C223        C224   1.409       .  A
C223       Br230   1.931       .  S
C224        C225   1.420       .  A
C224       Br229   1.935       .  S
C225        C226   1.410       .  A
C226      Br1627   1.925       .  S
Br227      C1626   1.925       .  S
C231        C232   1.420       .  A
C231        C236   1.402       .  A
C231       Br238   1.942       .  S
C232        C233   1.418       .  A
C233        C234   1.413       .  A
C233       Br240   1.931       .  S
C234        C235   1.410       .  A
C234       Br239   1.926       .  S
C235        C236   1.407       .  A
C236       Br237   1.920       .  S
C241        C242   1.416       .  A
C241        C246   1.413       .  A
C241       Br248   1.923       .  S
C242        C243   1.419       .  A
C243        C244   1.402       .  A
C243       Br250   1.935       .  S
C244        C245   1.403       .  A
C244       Br249   1.928       .  S
C245        C246   1.410       .  A
C246       Br247   1.929       .  S
C251        C252   1.412       .  A
C251        C256   1.412       .  A
C251       Br258   1.923       .  S
C252        C253   1.411       .  A
C253        C254   1.409       .  A
C253       Br260   1.931       .  S
C254        C255   1.410       .  A
C254       Br259   1.924       .  S
C255        C256   1.410       .  A
C256       Br257   1.928       .  S
C261        C262   1.420       .  A
C261        C266   1.411       .  A
C261       Br268   1.932       .  S
C262        C263   1.420       .  A
C263        C264   1.400       .  A
C263      Br1670   1.939       .  S
C264        C265   1.404       .  A
C264      Br1669   1.928       .  S
C265        C266   1.411       .  A
C266       Br267   1.935       .  S
Br269      C1664   1.928       .  S
Br270      C1663   1.939       .  S
C271        C272   1.406       .  A
C271        C276   1.411       .  A
C271       Br278   1.926       .  S
C272        C273   1.406       .  A
C273        C274   1.411       .  A
C273       Br280   1.923       .  S
C274        C275   1.412       .  A
C274       Br279   1.923       .  S
C275        C276   1.417       .  A
C276       Br277   1.923       .  S
C281        C282   1.406       .  A
C281        C286   1.402       .  A
C281       Br988   1.925       .  S
C282        C283   1.421       .  A
C283        C284   1.409       .  A
C283       Br290   1.934       .  S
C284        C285   1.411       .  A
C284       Br289   1.934       .  S
C285        C286   1.410       .  A
C286       Br287   1.929       .  S
Br288       C981   1.925       .  S
C291        C292   1.413       .  A
C291        C296   1.415       .  A
C291       Br298   1.928       .  S
C292        C293   1.410       .  A
C293        C294   1.413       .  A
C293       Br300   1.931       .  S
C294        C295   1.421       .  A
C294       Br299   1.921       .  S
C295        C296   1.419       .  A
C296       Br297   1.927       .  S
C301        C302   1.411       .  A
C301        C306   1.373       .  A
C301       Br308   1.897       .  S
C302        C303   1.431       .  A
C303        C304   1.437       .  A
C303       Br310   1.917       .  S
C304        C305   1.416       .  A
C304       Br309   1.924       .  S
C305        C306   1.390       .  A
C306       Br307   1.924       .  S
C311        C312   1.393       .  A
C311        C316   1.409       .  A
C311       Br318   1.929       .  S
C312        C313   1.451       .  A
C313        C314   1.416       .  A
C313       Br320   1.931       .  S
C314        C315   1.414       .  A
C314       Br319   1.937       .  S
C315        C316   1.395       .  A
C316       Br317   1.924       .  S
C321        C322   1.434       .  A
C321        C326   1.425       .  A
C321       Br328   1.915       .  S
C322        C323   1.423       .  A
C323        C324   1.396       .  A
C323       Br330   1.949       .  S
C324        C325   1.405       .  A
C324       Br329   1.914       .  S
C325        C326   1.414       .  A
C326       Br327   1.930       .  S
C331        C332   1.406       .  A
C331        C336   1.403       .  A
C331       Br338   1.925       .  S
C332        C333   1.413       .  A
C333        C334   1.417       .  A
C333       Br340   1.925       .  S
C334        C335   1.422       .  A
C334       Br339   1.930       .  S
C335        C336   1.409       .  A
C336       Br337   1.922       .  S
C341        C342   1.410       .  A
C341        C346   1.407       .  A
C341       Br348   1.931       .  S
C342        C343   1.417       .  A
C343        C344   1.415       .  A
C343       Br350   1.928       .  S
C344        C345   1.412       .  A
C344       Br349   1.921       .  S
C345        C346   1.417       .  A
C346       Br347   1.918       .  S
C351        H352   1.071       .  S
C351        C357   1.557       .  S
C351        C356   1.545       .  S
C351        C355   1.526       .  S
C353        H354   1.105       .  S
C353        C359   1.568       .  S
C353        C358   1.569       .  S
C353        C360   1.576       .  S
C355        C358   1.368       .  D
C355        C682   1.507       .  S
C356        C359   1.380       .  D
C356        C652   1.521       .  S
C357        C360   1.421       .  D
C357        C662   1.537       .  S
C358        C695   1.511       .  S
C359        C645   1.521       .  S
C360        C672   1.566       .  S
O361       Cu369   2.010   1_556  S
O361        C371   1.277       .  A
O362        C372   1.279       .  A
O363       Cu369   2.031   1_556  S
O363        C373   1.279       .  A
O364        C374   1.281       .  A
O365        C374   1.277       .  A
O366       Cu370   2.023       .  S
O366        C373   1.279       .  A
O367        C372   1.276       .  A
O368       Cu370   1.991       .  S
O368        C371   1.275       .  A
Cu369      Cu370   2.369   1_554  S
C371        C612   1.488       .  S
C372        C635   1.477       .  S
C373        C622   1.485       .  S
C374        C602   1.486       .  S
O375        C385   1.272       .  A
O376      Cu1083   1.992   1_545  S
O376        C386   1.273       .  A
O377       Cu733   2.035   1_545  S
O377        C387   1.283       .  A
O378       Cu383   2.034       .  S
O378        C388   1.281       .  A
O379       Cu384   1.966       .  S
O379        C388   1.271       .  A
O380       Cu734   1.974   1_545  S
O380        C387   1.270       .  A
O381      Cu1084   2.024   1_545  S
O381        C386   1.281       .  A
O382        C385   1.284       .  A
Cu383      O1076   1.994       .  S
Cu383       O727   2.039   1_556  S
Cu383      Cu384   2.369       .  S
Cu384       O730   1.975   1_556  S
Cu384      O1081   2.025       .  S
C385        C592   1.495       .  S
C386        C572   1.472       .  S
C387        C562   1.468       .  S
C388        C582   1.490       .  S
O389      Cu1447   1.977   1_455  S
O389        C399   1.271       .  A
O390       Cu397   2.002   1_556  S
O390        C400   1.276       .  A
O391        C401   1.281       .  A
O392      Cu1797   2.014   1_456  S
O392        C402   1.279       .  A
O393      Cu1448   2.016       .  S
O393        C402   1.278       .  A
O394       Cu398   2.010       .  S
O394        C401   1.276       .  A
O395        C400   1.281       .  A
O396      Cu1798   2.024       .  S
O396        C399   1.279       .  A
Cu397      O1439   1.975       .  S
Cu397      O1792   2.018   1_554  S
Cu398      O1443   2.015       .  S
Cu398      O1796   2.023       .  S
C399        C542   1.495       .  S
C400        C522   1.480       .  S
C401        C555   1.481       .  S
C402        C535   1.493       .  S
C403        C675   1.489       .  S
C403       C1804   1.439       .  A
C403        C408   1.398       .  A
C404        C512   1.508       .  S
C404       C1803   1.439   1_455  A
C404        C405   1.410       .  A
C405        C406   1.399       .  A
C405        H410   1.085       .  S
C406        C605   1.493       .  S
C406       C1807   1.414   1_455  A
C407        C565   1.473       .  S
C407       C1806   1.413       .  A
C407        C408   1.396       .  A
C408        H409   1.086       .  S
C411        C505   1.499       .  S
C411        C412   1.433       .  A
C411        C416   1.410       .  A
C412        C642   1.499       .  S
C412        C413   1.409       .  A
C413        C414   1.399       .  A
C413        H418   1.085       .  S
C414        C552   1.491       .  S
C414        C415   1.416       .  A
C415        C595   1.492       .  S
C415        C416   1.402       .  A
C416        H417   1.084       .  S
C419        C665   1.498       .  S
C419       C1820   1.431       .  A
C419        C424   1.410       .  A
C420        C492   1.510       .  S
C420       C1819   1.431   1_455  A
C420        C421   1.411       .  A
C421        C422   1.400       .  A
C421        H426   1.084       .  S
C422        C615   1.488       .  S
C422       C1823   1.416   1_455  A
C423        C575   1.497       .  S
C423       C1822   1.416       .  A
C423        C424   1.393       .  A
C424        H425   1.083       .  S
C427        C655   1.535       .  S
C427        C428   1.439       .  A
C427        C432   1.431       .  A
C428        C485   1.498       .  S
C428        C429   1.423       .  A
C429        C430   1.403       .  A
C429        H434   1.085       .  S
C430        C585   1.496       .  S
C430        C431   1.405       .  A
C431        C525   1.499       .  S
C431        C432   1.394       .  A
C432        H433   1.074       .  S
C435        C685   1.497       .  S
C435       C1136   1.439   1_545  A
C435        C440   1.418       .  A
C436        C472   1.523       .  S
C436       C1135   1.439       .  A
C436        C437   1.414       .  A
C437        C438   1.404       .  A
C437        H442   1.084       .  S
C438        C532   1.495       .  S
C438       C1139   1.414       .  A
C439        C625   1.502       .  S
C439       C1138   1.414   1_545  A
C439        C440   1.403       .  A
C440        H441   1.085       .  S
C443        C692   1.494       .  S
C443       C1144   1.431   1_545  A
C443        C448   1.408       .  A
C444        C462   1.491       .  S
C444       C1143   1.430       .  A
C444        C445   1.398       .  A
C445        C446   1.393       .  A
C445        H450   1.086       .  S
C446        C545   1.481       .  S
C446       C1147   1.421       .  A
C447        C632   1.500       .  S
C447       C1146   1.421   1_545  A
C447        C448   1.400       .  A
C448        H449   1.084       .  S
C451        H452   1.100       .  S
C451        C457   1.569       .  S
C451        C456   1.565       .  S
C451        C455   1.547       .  S
C453        H454   1.106       .  S
C453        C459   1.561       .  S
C453        C458   1.573       .  S
C453        C460   1.572       .  S
C455        C458   1.380       .  D
C455        C495   1.520       .  S
C456        C459   1.379       .  D
C456        C475   1.535       .  S
C457        C460   1.400       .  D
C457        C482   1.535       .  S
C458        C515   1.534       .  S
C459        C465   1.520       .  S
C460        C502   1.541       .  S
C461        C462   1.417       .  A
C461        C466   1.415       .  A
C461       Br468   1.934       .  S
C462        C463   1.405       .  A
C463        C464   1.406       .  A
C463       Br470   1.936       .  S
C464        C465   1.420       .  A
C464       Br469   1.909       .  S
C465        C466   1.420       .  A
C466       Br467   1.924       .  S
C471        C472   1.419       .  A
C471        C476   1.413       .  A
C471       Br478   1.931       .  S
C472        C473   1.412       .  A
C473        C474   1.416       .  A
C473       Br480   1.909       .  S
C474        C475   1.419       .  A
C474       Br479   1.899       .  S
C475        C476   1.412       .  A
C476       Br477   1.906       .  S
C481        C482   1.424       .  A
C481        C486   1.395       .  A
C481       Br488   1.926       .  S
C482        C483   1.433       .  A
C483        C484   1.415       .  A
C483       Br490   1.922       .  S
C484        C485   1.409       .  A
C484       Br489   1.920       .  S
C485        C486   1.402       .  A
C486       Br487   1.913       .  S
C491        C492   1.413       .  A
C491        C496   1.401       .  A
C491       Br498   1.937       .  S
C492        C493   1.412       .  A
C493        C494   1.421       .  A
C493       Br500   1.924       .  S
C494        C495   1.418       .  A
C494       Br499   1.920       .  S
C495        C496   1.418       .  A
C496       Br497   1.917       .  S
C501        C502   1.432       .  A
C501        C506   1.417       .  A
C501       Br508   1.924       .  S
C502        C503   1.434       .  A
C503        C504   1.414       .  A
C503       Br510   1.925       .  S
C504        C505   1.405       .  A
C504       Br509   1.932       .  S
C505        C506   1.409       .  A
C506       Br507   1.935       .  S
C511        C512   1.412       .  A
C511        C516   1.423       .  A
C511       Br518   1.925       .  S
C512        C513   1.413       .  A
C513        C514   1.416       .  A
C513       Br520   1.934       .  S
C514        C515   1.421       .  A
C514       Br519   1.918       .  S
C515        C516   1.420       .  A
C516       Br517   1.918       .  S
C521        C522   1.412       .  A
C521        C526   1.413       .  A
C521       Br528   1.931       .  S
C522        C523   1.409       .  A
C523        C524   1.403       .  A
C523       Br530   1.928       .  S
C524        C525   1.407       .  A
C524       Br529   1.923       .  S
C525        C526   1.415       .  A
C526       Br527   1.931       .  S
C531        C532   1.409       .  A
C531        C536   1.411       .  A
C531       Br538   1.933       .  S
C532        C533   1.412       .  A
C533        C534   1.409       .  A
C533       Br540   1.926       .  S
C534        C535   1.415       .  A
C534       Br539   1.935       .  S
C535        C536   1.419       .  A
C536       Br537   1.931       .  S
C541        C542   1.428       .  A
C541        C546   1.403       .  A
C541      Br1248   1.940       .  S
C542        C543   1.422       .  A
C543        C544   1.408       .  A
C543       Br550   1.934       .  S
C544        C545   1.411       .  A
C544       Br549   1.939       .  S
C545        C546   1.401       .  A
C546      Br1247   1.935       .  S
Br547      C1246   1.935   1_545  S
Br548      C1241   1.940       .  S
C551        C552   1.408       .  A
C551        C556   1.408       .  A
C551       Br558   1.924       .  S
C552        C553   1.409       .  A
C553        C554   1.409       .  A
C553       Br560   1.931       .  S
C554        C555   1.411       .  A
C554       Br559   1.922       .  S
C555        C556   1.408       .  A
C556       Br557   1.923       .  S
C561        C562   1.409       .  A
C561        C566   1.404       .  A
C561       Br568   1.929       .  S
C562        C563   1.405       .  A
C563        C564   1.402       .  A
C563       Br570   1.918       .  S
C564        C565   1.407       .  A
C564      Br1969   1.931       .  S
C565        C566   1.407       .  A
C566       Br567   1.926       .  S
Br569      C1964   1.930       .  S
C571        C572   1.406       .  A
C571        C576   1.401       .  A
C571       Br578   1.927       .  S
C572        C573   1.408       .  A
C573        C574   1.410       .  A
C573       Br580   1.931       .  S
C574        C575   1.420       .  A
C574       Br579   1.935       .  S
C575        C576   1.410       .  A
C576      Br1977   1.925       .  S
Br577      C1976   1.925       .  S
C581        C582   1.419       .  A
C581        C586   1.401       .  A
C581       Br588   1.941       .  S
C582        C583   1.417       .  A
C583        C584   1.414       .  A
C583       Br590   1.931       .  S
C584        C585   1.410       .  A
C584       Br589   1.926       .  S
C585        C586   1.407       .  A
C586       Br587   1.920       .  S
C591        C592   1.416       .  A
C591        C596   1.414       .  A
C591       Br598   1.924       .  S
C592        C593   1.420       .  A
C593        C594   1.402       .  A
C593       Br600   1.935       .  S
C594        C595   1.403       .  A
C594       Br599   1.927       .  S
C595        C596   1.411       .  A
C596       Br597   1.929       .  S
C601        C602   1.412       .  A
C601        C606   1.412       .  A
C601       Br608   1.924       .  S
C602        C603   1.411       .  A
C603        C604   1.408       .  A
C603       Br610   1.932       .  S
C604        C605   1.410       .  A
C604       Br609   1.924       .  S
C605        C606   1.411       .  A
C606       Br607   1.929       .  S
C611        C612   1.421       .  A
C611        C616   1.411       .  A
C611       Br618   1.932       .  S
C612        C613   1.420       .  A
C613        C614   1.400       .  A
C613      Br2020   1.940       .  S
C614        C615   1.404       .  A
C614      Br2019   1.928       .  S
C615        C616   1.411       .  A
C616       Br617   1.935       .  S
Br619      C2014   1.928       .  S
Br620      C2013   1.939       .  S
C621        C622   1.406       .  A
C621        C626   1.411       .  A
C621       Br628   1.925       .  S
C622        C623   1.406       .  A
C623        C624   1.412       .  A
C623       Br630   1.923       .  S
C624        C625   1.412       .  A
C624       Br629   1.923       .  S
C625        C626   1.416       .  A
C626       Br627   1.924       .  S
C631        C632   1.407       .  A
C631        C636   1.401       .  A
C631      Br1338   1.924       .  S
C632        C633   1.422       .  A
C633        C634   1.411       .  A
C633       Br640   1.933       .  S
C634        C635   1.411       .  A
C634       Br639   1.934       .  S
C635        C636   1.410       .  A
C636       Br637   1.930       .  S
Br638      C1331   1.924       .  S
C641        C642   1.413       .  A
C641        C646   1.416       .  A
C641       Br648   1.928       .  S
C642        C643   1.410       .  A
C643        C644   1.414       .  A
C643       Br650   1.931       .  S
C644        C645   1.421       .  A
C644       Br649   1.920       .  S
C645        C646   1.420       .  A
C646       Br647   1.927       .  S
C651        C652   1.411       .  A
C651        C656   1.373       .  A
C651       Br658   1.897       .  S
C652        C653   1.430       .  A
C653        C654   1.436       .  A
C653       Br660   1.916       .  S
C654        C655   1.416       .  A
C654       Br659   1.924       .  S
C655        C656   1.390       .  A
C656       Br657   1.923       .  S
C661        C662   1.392       .  A
C661        C666   1.409       .  A
C661       Br668   1.930       .  S
C662        C663   1.451       .  A
C663        C664   1.416       .  A
C663       Br670   1.931       .  S
C664        C665   1.413       .  A
C664       Br669   1.937       .  S
C665        C666   1.395       .  A
C666       Br667   1.925       .  S
C671        C672   1.433       .  A
C671        C676   1.425       .  A
C671       Br678   1.914       .  S
C672        C673   1.424       .  A
C673        C674   1.396       .  A
C673       Br680   1.950       .  S
C674        C675   1.405       .  A
C674       Br679   1.915       .  S
C675        C676   1.413       .  A
C676       Br677   1.930       .  S
C681        C682   1.406       .  A
C681        C686   1.403       .  A
C681       Br688   1.924       .  S
C682        C683   1.413       .  A
C683        C684   1.417       .  A
C683       Br690   1.924       .  S
C684        C685   1.422       .  A
C684       Br689   1.931       .  S
C685        C686   1.409       .  A
C686       Br687   1.922       .  S
C691        C692   1.410       .  A
C691        C696   1.407       .  A
C691       Br698   1.930       .  S
C692        C693   1.417       .  A
C693        C694   1.415       .  A
C693       Br700   1.927       .  S
C694        C695   1.412       .  A
C694       Br699   1.921       .  S
C695        C696   1.417       .  A
C696       Br697   1.918       .  S
C701        H702   1.068       .  S
C701        C707   1.559       .  S
C701        C706   1.545       .  S
C701        C705   1.527       .  S
C703        H704   1.104       .  S
C703        C709   1.566       .  S
C703        C708   1.568       .  S
C703        C710   1.575       .  S
C705        C708   1.369       .  D
C705       C1032   1.508       .  S
C706        C709   1.379       .  D
C706       C1002   1.522       .  S
C707        C710   1.420       .  D
C707       C1012   1.537       .  S
C708       C1045   1.511       .  S
C709        C995   1.519       .  S
C710       C1022   1.566       .  S
O711       Cu719   2.014       .  S
O711        C721   1.277       .  A
O712      Cu1069   2.013       .  S
O712        C722   1.279       .  A
O713       Cu719   2.029       .  S
O713        C723   1.278       .  A
O714      Cu1069   2.038       .  S
O714        C724   1.281       .  A
O715      Cu1070   2.010   1_554  S
O715        C724   1.277       .  A
O716       Cu720   2.022       .  S
O716        C723   1.279       .  A
O717      Cu1070   2.002   1_554  S
O717        C722   1.276       .  A
O718       Cu720   1.989       .  S
O718        C721   1.275       .  A
Cu719      O1062   2.016       .  S
Cu719      O1064   2.037       .  S
Cu719      Cu720   2.369       .  S
Cu720      O1065   2.008       .  S
Cu720      O1067   1.998       .  S
C721        C962   1.488       .  S
C722        C985   1.476       .  S
C723        C972   1.483       .  S
C724        C952   1.488       .  S
O725      Cu1083   1.988   1_554  S
O725        C735   1.272       .  A
O726        C736   1.273       .  A
O727        C737   1.283       .  A
O728       Cu733   2.034       .  S
O728        C738   1.281       .  A
O729       Cu734   1.966       .  S
O729        C738   1.270       .  A
O730        C737   1.270       .  A
O731        C736   1.281       .  A
O732      Cu1084   2.047   1_554  S
O732        C735   1.284       .  A
Cu733      O1075   1.987       .  S
Cu733      Cu734   2.369       .  S
Cu734      O1082   2.050       .  S
C735        C942   1.494       .  S
C736        C922   1.471       .  S
C737        C912   1.471       .  S
C738        C932   1.490       .  S
O739      Cu2497   1.974   1_455  S
O739        C749   1.271       .  A
O740       Cu747   2.002       .  S
O740        C750   1.275       .  A
O741      Cu1097   2.036       .  S
O741        C751   1.282       .  A
O742      Cu2147   2.016   1_455  S
O742        C752   1.279       .  A
O743      Cu2498   2.016       .  S
O743        C752   1.278       .  A
O744       Cu748   2.013   1_554  S
O744        C751   1.276       .  A
O745      Cu1098   2.023       .  S
O745        C750   1.280       .  A
O746      Cu2148   2.026   1_554  S
O746        C749   1.280       .  A
Cu747      O2489   1.976       .  S
Cu747      O1091   2.034       .  S
Cu747      O2142   2.017       .  S
Cu747     Cu1098   2.366       .  S
Cu748      O2493   2.017       .  S
Cu748      O1095   2.023       .  S
Cu748      O2146   2.022   1_556  S
Cu748     Cu1097   2.366   1_556  S
C749        C892   1.495       .  S
C750        C872   1.479       .  S
C751        C905   1.483       .  S
C752        C885   1.494       .  S
C753       C1025   1.489       .  S
C753       C2154   1.440       .  A
C753        C758   1.400       .  A
C754        C862   1.508       .  S
C754       C2153   1.439   1_455  A
C754        C755   1.410       .  A
C755        C756   1.399       .  A
C755        H760   1.085       .  S
C756        C955   1.495       .  S
C756       C2157   1.413   1_455  A
C757        C915   1.475       .  S
C757       C2156   1.414       .  A
C757        C758   1.397       .  A
C758        H759   1.086       .  S
C761        C855   1.500       .  S
C761        C762   1.432       .  A
C761        C766   1.409       .  A
C762        C992   1.496       .  S
C762        C763   1.409       .  A
C763        C764   1.398       .  A
C763        H768   1.085       .  S
C764        C902   1.491       .  S
C764        C765   1.415       .  A
C765        C945   1.489       .  S
C765        C766   1.402       .  A
C766        H767   1.085       .  S
C769       C1015   1.498       .  S
C769       C2170   1.431       .  A
C769        C774   1.409       .  A
C770        C842   1.508       .  S
C770       C2169   1.431   1_455  A
C770        C771   1.411       .  A
C771        C772   1.399       .  A
C771        H776   1.085       .  S
C772        C965   1.488       .  S
C772       C2173   1.416   1_455  A
C773        C925   1.496       .  S
C773       C2172   1.415       .  A
C773        C774   1.392       .  A
C774        H775   1.083       .  S
C777       C1005   1.535       .  S
C777        C778   1.440       .  A
C777        C782   1.430       .  A
C778        C835   1.497       .  S
C778        C779   1.422       .  A
C779        C780   1.401       .  A
C779        H784   1.085       .  S
C780        C935   1.495       .  S
C780        C781   1.405       .  A
C781        C875   1.498       .  S
C781        C782   1.394       .  A
C782        H783   1.074       .  S
C785       C1035   1.498       .  S
C785        C790   1.418       .  A
C786        C822   1.524       .  S
C786        C787   1.415       .  A
C787        C788   1.404       .  A
C787        H792   1.084       .  S
C788        C882   1.496       .  S
C789        C975   1.502       .  S
C789        C790   1.404       .  A
C790        H791   1.085       .  S
C793       C1042   1.494       .  S
C793        C798   1.406       .  A
C794        C812   1.492       .  S
C794        C795   1.399       .  A
C795        C796   1.394       .  A
C795        H800   1.086       .  S
C796        C895   1.482       .  S
C797        C982   1.496       .  S
C797        C798   1.398       .  A
C798        H799   1.085       .  S
C801        H802   1.100       .  S
C801        C807   1.568       .  S
C801        C806   1.565       .  S
C801        C805   1.547       .  S
C803        H804   1.106       .  S
C803        C809   1.562       .  S
C803        C808   1.574       .  S
C803        C810   1.571       .  S
C805        C808   1.380       .  D
C805        C845   1.520       .  S
C806        C809   1.380       .  D
C806        C825   1.536       .  S
C807        C810   1.398       .  D
C807        C832   1.533       .  S
C808        C865   1.533       .  S
C809        C815   1.521       .  S
C810        C852   1.540       .  S
C811        C812   1.417       .  A
C811        C816   1.415       .  A
C811       Br818   1.934       .  S
C812        C813   1.405       .  A
C813        C814   1.407       .  A
C813       Br820   1.936       .  S
C814        C815   1.420       .  A
C814       Br819   1.910       .  S
C815        C816   1.419       .  A
C816       Br817   1.924       .  S
C821        C822   1.418       .  A
C821        C826   1.412       .  A
C821       Br828   1.931       .  S
C822        C823   1.412       .  A
C823        C824   1.416       .  A
C823       Br830   1.909       .  S
C824        C825   1.420       .  A
C824       Br829   1.900       .  S
C825        C826   1.412       .  A
C826       Br827   1.905       .  S
C831        C832   1.422       .  A
C831        C836   1.394       .  A
C831       Br838   1.926       .  S
C832        C833   1.433       .  A
C833        C834   1.414       .  A
C833       Br840   1.922       .  S
C834        C835   1.409       .  A
C834       Br839   1.919       .  S
C835        C836   1.403       .  A
C836       Br837   1.912       .  S
C841        C842   1.412       .  A
C841        C846   1.400       .  A
C841       Br848   1.937       .  S
C842        C843   1.412       .  A
C843        C844   1.421       .  A
C843       Br850   1.924       .  S
C844        C845   1.419       .  A
C844       Br849   1.920       .  S
C845        C846   1.418       .  A
C846       Br847   1.916       .  S
C851        C852   1.431       .  A
C851        C856   1.417       .  A
C851       Br858   1.924       .  S
C852        C853   1.434       .  A
C853        C854   1.414       .  A
C853       Br860   1.925       .  S
C854        C855   1.405       .  A
C854       Br859   1.932       .  S
C855        C856   1.409       .  A
C856       Br857   1.934       .  S
C861        C862   1.412       .  A
C861        C866   1.423       .  A
C861       Br868   1.925       .  S
C862        C863   1.413       .  A
C863        C864   1.416       .  A
C863       Br870   1.935       .  S
C864        C865   1.421       .  A
C864       Br869   1.918       .  S
C865        C866   1.420       .  A
C866       Br867   1.918       .  S
C871        C872   1.411       .  A
C871        C876   1.412       .  A
C871       Br878   1.931       .  S
C872        C873   1.409       .  A
C873        C874   1.403       .  A
C873       Br880   1.929       .  S
C874        C875   1.407       .  A
C874       Br879   1.923       .  S
C875        C876   1.415       .  A
C876       Br877   1.931       .  S
C881        C882   1.410       .  A
C881        C886   1.411       .  A
C881       Br888   1.933       .  S
C882        C883   1.412       .  A
C883        C884   1.410       .  A
C883       Br890   1.926       .  S
C884        C885   1.415       .  A
C884       Br889   1.935       .  S
C885        C886   1.419       .  A
C886       Br887   1.931       .  S
C891        C892   1.428       .  A
C891        C896   1.403       .  A
C892        C893   1.422       .  A
C893        C894   1.409       .  A
C893       Br900   1.934       .  S
C894        C895   1.411       .  A
C894       Br899   1.938       .  S
C895        C896   1.401       .  A
C901        C902   1.408       .  A
C901        C906   1.409       .  A
C901       Br908   1.925       .  S
C902        C903   1.409       .  A
C903        C904   1.409       .  A
C903       Br910   1.931       .  S
C904        C905   1.411       .  A
C904       Br909   1.922       .  S
C905        C906   1.409       .  A
C906       Br907   1.923       .  S
C911        C912   1.410       .  A
C911        C916   1.405       .  A
C911       Br918   1.929       .  S
C912        C913   1.406       .  A
C913        C914   1.403       .  A
C913       Br920   1.918       .  S
C914        C915   1.407       .  A
C914      Br2319   1.930       .  S
C915        C916   1.406       .  A
C916       Br917   1.926       .  S
Br919      C2314   1.931       .  S
C921        C922   1.406       .  A
C921        C926   1.402       .  A
C921       Br928   1.926       .  S
C922        C923   1.408       .  A
C923        C924   1.409       .  A
C923       Br930   1.931       .  S
C924        C925   1.420       .  A
C924       Br929   1.935       .  S
C925        C926   1.410       .  A
C926      Br2327   1.925       .  S
Br927      C2326   1.925       .  S
C931        C932   1.420       .  A
C931        C936   1.401       .  A
C931       Br938   1.942       .  S
C932        C933   1.418       .  A
C933        C934   1.413       .  A
C933       Br940   1.931       .  S
C934        C935   1.410       .  A
C934       Br939   1.926       .  S
C935        C936   1.407       .  A
C936       Br937   1.920       .  S
C941        C942   1.416       .  A
C941        C946   1.412       .  A
C941       Br948   1.923       .  S
C942        C943   1.419       .  A
C943        C944   1.402       .  A
C943       Br950   1.935       .  S
C944        C945   1.403       .  A
C944       Br949   1.928       .  S
C945        C946   1.410       .  A
C946       Br947   1.929       .  S
C951        C952   1.413       .  A
C951        C956   1.412       .  A
C951       Br958   1.924       .  S
C952        C953   1.411       .  A
C953        C954   1.409       .  A
C953       Br960   1.931       .  S
C954        C955   1.410       .  A
C954       Br959   1.924       .  S
C955        C956   1.410       .  A
C956       Br957   1.929       .  S
C961        C962   1.420       .  A
C961        C966   1.411       .  A
C961       Br968   1.932       .  S
C962        C963   1.420       .  A
C963        C964   1.400       .  A
C963      Br2370   1.939       .  S
C964        C965   1.404       .  A
C964      Br2369   1.929       .  S
C965        C966   1.411       .  A
C966       Br967   1.935       .  S
Br969      C2364   1.928       .  S
Br970      C2363   1.939       .  S
C971        C972   1.406       .  A
C971        C976   1.410       .  A
C971       Br978   1.926       .  S
C972        C973   1.406       .  A
C973        C974   1.411       .  A
C973       Br980   1.923       .  S
C974        C975   1.412       .  A
C974       Br979   1.923       .  S
C975        C976   1.417       .  A
C976       Br977   1.924       .  S
C981        C982   1.406       .  A
C981        C986   1.401       .  A
C982        C983   1.421       .  A
C983        C984   1.409       .  A
C983       Br990   1.934       .  S
C984        C985   1.410       .  A
C984       Br989   1.934       .  S
C985        C986   1.410       .  A
C986       Br987   1.929       .  S
C991        C992   1.413       .  A
C991        C996   1.414       .  A
C991       Br998   1.929       .  S
C992        C993   1.410       .  A
C993        C994   1.413       .  A
C993      Br1000   1.931       .  S
C994        C995   1.421       .  A
C994       Br999   1.921       .  S
C995        C996   1.419       .  A
C996       Br997   1.927       .  S
C1001      C1002   1.411       .  A
C1001      C1006   1.373       .  A
C1001     Br1008   1.897       .  S
C1002      C1003   1.431       .  A
C1003      C1004   1.437       .  A
C1003     Br1010   1.916       .  S
C1004      C1005   1.415       .  A
C1004     Br1009   1.924       .  S
C1005      C1006   1.391       .  A
C1006     Br1007   1.924       .  S
C1011      C1012   1.393       .  A
C1011      C1016   1.409       .  A
C1011     Br1018   1.929       .  S
C1012      C1013   1.450       .  A
C1013      C1014   1.416       .  A
C1013     Br1020   1.930       .  S
C1014      C1015   1.414       .  A
C1014     Br1019   1.938       .  S
C1015      C1016   1.395       .  A
C1016     Br1017   1.925       .  S
C1021      C1022   1.433       .  A
C1021      C1026   1.425       .  A
C1021     Br1028   1.914       .  S
C1022      C1023   1.423       .  A
C1023      C1024   1.396       .  A
C1023     Br1030   1.950       .  S
C1024      C1025   1.405       .  A
C1024     Br1029   1.915       .  S
C1025      C1026   1.414       .  A
C1026     Br1027   1.930       .  S
C1031      C1032   1.407       .  A
C1031      C1036   1.404       .  A
C1031     Br1038   1.924       .  S
C1032      C1033   1.413       .  A
C1033      C1034   1.418       .  A
C1033     Br1040   1.925       .  S
C1034      C1035   1.422       .  A
C1034     Br1039   1.930       .  S
C1035      C1036   1.409       .  A
C1036     Br1037   1.922       .  S
C1041      C1042   1.410       .  A
C1041      C1046   1.407       .  A
C1041     Br1048   1.930       .  S
C1042      C1043   1.417       .  A
C1043      C1044   1.414       .  A
C1043     Br1050   1.929       .  S
C1044      C1045   1.412       .  A
C1044     Br1049   1.921       .  S
C1045      C1046   1.416       .  A
C1046     Br1047   1.918       .  S
C1051      H1052   1.081       .  S
C1051      C1057   1.557       .  S
C1051      C1056   1.544       .  S
C1051      C1055   1.525       .  S
C1053      H1054   1.106       .  S
C1053      C1059   1.567       .  S
C1053      C1058   1.569       .  S
C1053      C1060   1.576       .  S
C1055      C1058   1.369       .  D
C1055      C1382   1.508       .  S
C1056      C1059   1.381       .  D
C1056      C1352   1.522       .  S
C1057      C1060   1.422       .  D
C1057      C1362   1.538       .  S
C1058      C1395   1.511       .  S
C1059      C1345   1.522       .  S
C1060      C1372   1.566       .  S
O1061     Cu1069   2.010   1_556  S
O1061      C1071   1.277       .  A
O1062      C1072   1.279       .  A
O1063     Cu1069   2.029   1_556  S
O1063      C1073   1.279       .  A
O1064      C1074   1.281       .  A
O1065      C1074   1.277       .  A
O1066     Cu1070   2.022       .  S
O1066      C1073   1.279       .  A
O1067      C1072   1.275       .  A
O1068     Cu1070   1.991       .  S
O1068      C1071   1.275       .  A
Cu1069    Cu1070   2.369   1_554  S
C1071      C1312   1.488       .  S
C1072      C1335   1.476       .  S
C1073      C1322   1.484       .  S
C1074      C1302   1.486       .  S
O1075      C1085   1.272       .  A
O1076      C1086   1.274       .  A
O1077      C1087   1.283       .  A
O1078     Cu1083   2.036       .  S
O1078      C1088   1.281       .  A
O1079     Cu1084   1.966       .  S
O1079      C1088   1.271       .  A
O1080      C1087   1.270       .  A
O1081      C1086   1.281       .  A
O1082      C1085   1.284       .  A
Cu1083    Cu1084   2.369       .  S
C1085      C1292   1.495       .  S
C1086      C1272   1.473       .  S
C1087      C1262   1.469       .  S
C1088      C1282   1.490       .  S
O1089     Cu2147   1.976   1_455  S
O1089      C1099   1.271       .  A
O1090     Cu1097   2.001   1_556  S
O1090      C1100   1.276       .  A
O1091      C1101   1.282       .  A
O1092     Cu2497   2.017   1_456  S
O1092      C1102   1.279       .  A
O1093     Cu2148   2.017       .  S
O1093      C1102   1.278       .  A
O1094     Cu1098   2.011       .  S
O1094      C1101   1.275       .  A
O1095      C1100   1.280       .  A
O1096     Cu2498   2.023       .  S
O1096      C1099   1.279       .  A
Cu1097     O2139   1.974       .  S
Cu1097     O2492   2.017   1_554  S
Cu1098     O2143   2.015       .  S
Cu1098     O2496   2.024       .  S
C1099      C1242   1.494       .  S
C1100      C1222   1.479       .  S
C1101      C1255   1.482       .  S
C1102      C1235   1.494       .  S
C1103      C1375   1.488       .  S
C1103      C2504   1.439       .  A
C1103      C1108   1.399       .  A
C1104      C1212   1.508       .  S
C1104      C2503   1.439   1_455  A
C1104      C1105   1.409       .  A
C1105      C1106   1.399       .  A
C1105      H1110   1.085       .  S
C1106      C1305   1.494       .  S
C1106      C2507   1.414   1_455  A
C1107      C1265   1.473       .  S
C1107      C2506   1.413       .  A
C1107      C1108   1.396       .  A
C1108      H1109   1.086       .  S
C1111      C1205   1.499       .  S
C1111      C1112   1.433       .  A
C1111      C1116   1.410       .  A
C1112      C1342   1.500       .  S
C1112      C1113   1.409       .  A
C1113      C1114   1.399       .  A
C1113      H1118   1.085       .  S
C1114      C1252   1.491       .  S
C1114      C1115   1.415       .  A
C1115      C1295   1.492       .  S
C1115      C1116   1.402       .  A
C1116      H1117   1.085       .  S
C1119      C1365   1.498       .  S
C1119      C2520   1.431       .  A
C1119      C1124   1.411       .  A
C1120      C1192   1.510       .  S
C1120      C2519   1.431   1_455  A
C1120      C1121   1.411       .  A
C1121      C1122   1.400       .  A
C1121      H1126   1.085       .  S
C1122      C1315   1.488       .  S
C1122      C2523   1.416   1_455  A
C1123      C1275   1.498       .  S
C1123      C2522   1.416       .  A
C1123      C1124   1.393       .  A
C1124      H1125   1.083       .  S
C1127      C1355   1.536       .  S
C1127      C1128   1.440       .  A
C1127      C1132   1.431       .  A
C1128      C1185   1.498       .  S
C1128      C1129   1.423       .  A
C1129      C1130   1.402       .  A
C1129      H1134   1.085       .  S
C1130      C1285   1.496       .  S
C1130      C1131   1.405       .  A
C1131      C1225   1.499       .  S
C1131      C1132   1.394       .  A
C1132      H1133   1.074       .  S
C1135      C1385   1.497       .  S
C1135      C1140   1.418       .  A
C1136      C1172   1.524       .  S
C1136      C1137   1.415       .  A
C1137      C1138   1.404       .  A
C1137      H1142   1.084       .  S
C1138      C1232   1.496       .  S
C1139      C1325   1.501       .  S
C1139      C1140   1.403       .  A
C1140      H1141   1.085       .  S
C1143      C1392   1.494       .  S
C1143      C1148   1.407       .  A
C1144      C1162   1.491       .  S
C1144      C1145   1.397       .  A
C1145      C1146   1.393       .  A
C1145      H1150   1.086       .  S
C1146      C1245   1.481       .  S
C1147      C1332   1.499       .  S
C1147      C1148   1.399       .  A
C1148      H1149   1.085       .  S
C1151      H1152   1.100       .  S
C1151      C1157   1.569       .  S
C1151      C1156   1.566       .  S
C1151      C1155   1.548       .  S
C1153      H1154   1.106       .  S
C1153      C1159   1.560       .  S
C1153      C1158   1.573       .  S
C1153      C1160   1.571       .  S
C1155      C1158   1.380       .  D
C1155      C1195   1.521       .  S
C1156      C1159   1.379       .  D
C1156      C1175   1.536       .  S
C1157      C1160   1.399       .  D
C1157      C1182   1.535       .  S
C1158      C1215   1.534       .  S
C1159      C1165   1.520       .  S
C1160      C1202   1.540       .  S
C1161      C1162   1.417       .  A
C1161      C1166   1.415       .  A
C1161     Br1168   1.934       .  S
C1162      C1163   1.405       .  A
C1163      C1164   1.407       .  A
C1163     Br1170   1.937       .  S
C1164      C1165   1.420       .  A
C1164     Br1169   1.909       .  S
C1165      C1166   1.419       .  A
C1166     Br1167   1.924       .  S
C1171      C1172   1.419       .  A
C1171      C1176   1.413       .  A
C1171     Br1178   1.931       .  S
C1172      C1173   1.412       .  A
C1173      C1174   1.416       .  A
C1173     Br1180   1.908       .  S
C1174      C1175   1.420       .  A
C1174     Br1179   1.900       .  S
C1175      C1176   1.412       .  A
C1176     Br1177   1.905       .  S
C1181      C1182   1.424       .  A
C1181      C1186   1.395       .  A
C1181     Br1188   1.926       .  S
C1182      C1183   1.433       .  A
C1183      C1184   1.415       .  A
C1183     Br1190   1.923       .  S
C1184      C1185   1.409       .  A
C1184     Br1189   1.920       .  S
C1185      C1186   1.402       .  A
C1186     Br1187   1.912       .  S
C1191      C1192   1.413       .  A
C1191      C1196   1.401       .  A
C1191     Br1198   1.937       .  S
C1192      C1193   1.412       .  A
C1193      C1194   1.421       .  A
C1193     Br1200   1.924       .  S
C1194      C1195   1.419       .  A
C1194     Br1199   1.920       .  S
C1195      C1196   1.418       .  A
C1196     Br1197   1.917       .  S
C1201      C1202   1.431       .  A
C1201      C1206   1.417       .  A
C1201     Br1208   1.925       .  S
C1202      C1203   1.434       .  A
C1203      C1204   1.414       .  A
C1203     Br1210   1.926       .  S
C1204      C1205   1.405       .  A
C1204     Br1209   1.931       .  S
C1205      C1206   1.409       .  A
C1206     Br1207   1.934       .  S
C1211      C1212   1.412       .  A
C1211      C1216   1.423       .  A
C1211     Br1218   1.925       .  S
C1212      C1213   1.413       .  A
C1213      C1214   1.416       .  A
C1213     Br1220   1.934       .  S
C1214      C1215   1.421       .  A
C1214     Br1219   1.918       .  S
C1215      C1216   1.420       .  A
C1216     Br1217   1.918       .  S
C1221      C1222   1.412       .  A
C1221      C1226   1.413       .  A
C1221     Br1228   1.931       .  S
C1222      C1223   1.409       .  A
C1223      C1224   1.402       .  A
C1223     Br1230   1.928       .  S
C1224      C1225   1.407       .  A
C1224     Br1229   1.923       .  S
C1225      C1226   1.415       .  A
C1226     Br1227   1.931       .  S
C1231      C1232   1.410       .  A
C1231      C1236   1.411       .  A
C1231     Br1238   1.933       .  S
C1232      C1233   1.412       .  A
C1233      C1234   1.410       .  A
C1233     Br1240   1.926       .  S
C1234      C1235   1.415       .  A
C1234     Br1239   1.935       .  S
C1235      C1236   1.419       .  A
C1236     Br1237   1.931       .  S
C1241      C1242   1.428       .  A
C1241      C1246   1.403       .  A
C1242      C1243   1.422       .  A
C1243      C1244   1.408       .  A
C1243     Br1250   1.935       .  S
C1244      C1245   1.411       .  A
C1244     Br1249   1.939       .  S
C1245      C1246   1.401       .  A
C1251      C1252   1.408       .  A
C1251      C1256   1.409       .  A
C1251     Br1258   1.924       .  S
C1252      C1253   1.409       .  A
C1253      C1254   1.409       .  A
C1253     Br1260   1.930       .  S
C1254      C1255   1.411       .  A
C1254     Br1259   1.923       .  S
C1255      C1256   1.408       .  A
C1256     Br1257   1.923       .  S
C1261      C1262   1.410       .  A
C1261      C1266   1.404       .  A
C1261     Br1268   1.929       .  S
C1262      C1263   1.405       .  A
C1263      C1264   1.402       .  A
C1263     Br1270   1.918       .  S
C1264      C1265   1.407       .  A
C1264     Br2669   1.930       .  S
C1265      C1266   1.407       .  A
C1266     Br1267   1.926       .  S
Br1269     C2664   1.930       .  S
C1271      C1272   1.406       .  A
C1271      C1276   1.402       .  A
C1271     Br1278   1.926       .  S
C1272      C1273   1.408       .  A
C1273      C1274   1.410       .  A
C1273     Br1280   1.931       .  S
C1274      C1275   1.420       .  A
C1274     Br1279   1.935       .  S
C1275      C1276   1.410       .  A
C1276     Br2677   1.925       .  S
Br1277     C2676   1.925       .  S
C1281      C1282   1.419       .  A
C1281      C1286   1.401       .  A
C1281     Br1288   1.941       .  S
C1282      C1283   1.417       .  A
C1283      C1284   1.414       .  A
C1283     Br1290   1.931       .  S
C1284      C1285   1.410       .  A
C1284     Br1289   1.926       .  S
C1285      C1286   1.407       .  A
C1286     Br1287   1.920       .  S
C1291      C1292   1.415       .  A
C1291      C1296   1.413       .  A
C1291     Br1298   1.924       .  S
C1292      C1293   1.420       .  A
C1293      C1294   1.403       .  A
C1293     Br1300   1.936       .  S
C1294      C1295   1.404       .  A
C1294     Br1299   1.927       .  S
C1295      C1296   1.411       .  A
C1296     Br1297   1.928       .  S
C1301      C1302   1.412       .  A
C1301      C1306   1.412       .  A
C1301     Br1308   1.924       .  S
C1302      C1303   1.411       .  A
C1303      C1304   1.408       .  A
C1303     Br1310   1.932       .  S
C1304      C1305   1.410       .  A
C1304     Br1309   1.924       .  S
C1305      C1306   1.411       .  A
C1306     Br1307   1.929       .  S
C1311      C1312   1.421       .  A
C1311      C1316   1.411       .  A
C1311     Br1318   1.932       .  S
C1312      C1313   1.420       .  A
C1313      C1314   1.400       .  A
C1313     Br2720   1.939       .  S
C1314      C1315   1.404       .  A
C1314     Br2719   1.929       .  S
C1315      C1316   1.411       .  A
C1316     Br1317   1.935       .  S
Br1319     C2714   1.928       .  S
Br1320     C2713   1.939       .  S
C1321      C1322   1.406       .  A
C1321      C1326   1.411       .  A
C1321     Br1328   1.925       .  S
C1322      C1323   1.406       .  A
C1323      C1324   1.412       .  A
C1323     Br1330   1.924       .  S
C1324      C1325   1.412       .  A
C1324     Br1329   1.923       .  S
C1325      C1326   1.416       .  A
C1326     Br1327   1.924       .  S
C1331      C1332   1.407       .  A
C1331      C1336   1.401       .  A
C1332      C1333   1.422       .  A
C1333      C1334   1.410       .  A
C1333     Br1340   1.933       .  S
C1334      C1335   1.410       .  A
C1334     Br1339   1.934       .  S
C1335      C1336   1.410       .  A
C1336     Br1337   1.930       .  S
C1341      C1342   1.413       .  A
C1341      C1346   1.416       .  A
C1341     Br1348   1.928       .  S
C1342      C1343   1.410       .  A
C1343      C1344   1.414       .  A
C1343     Br1350   1.930       .  S
C1344      C1345   1.421       .  A
C1344     Br1349   1.920       .  S
C1345      C1346   1.420       .  A
C1346     Br1347   1.927       .  S
C1351      C1352   1.412       .  A
C1351      C1356   1.373       .  A
C1351     Br1358   1.897       .  S
C1352      C1353   1.431       .  A
C1353      C1354   1.436       .  A
C1353     Br1360   1.917       .  S
C1354      C1355   1.416       .  A
C1354     Br1359   1.924       .  S
C1355      C1356   1.390       .  A
C1356     Br1357   1.924       .  S
C1361      C1362   1.392       .  A
C1361      C1366   1.410       .  A
C1361     Br1368   1.930       .  S
C1362      C1363   1.451       .  A
C1363      C1364   1.416       .  A
C1363     Br1370   1.931       .  S
C1364      C1365   1.413       .  A
C1364     Br1369   1.937       .  S
C1365      C1366   1.395       .  A
C1366     Br1367   1.925       .  S
C1371      C1372   1.434       .  A
C1371      C1376   1.425       .  A
C1371     Br1378   1.914       .  S
C1372      C1373   1.423       .  A
C1373      C1374   1.396       .  A
C1373     Br1380   1.951       .  S
C1374      C1375   1.405       .  A
C1374     Br1379   1.915       .  S
C1375      C1376   1.413       .  A
C1376     Br1377   1.930       .  S
C1381      C1382   1.406       .  A
C1381      C1386   1.403       .  A
C1381     Br1388   1.924       .  S
C1382      C1383   1.414       .  A
C1383      C1384   1.418       .  A
C1383     Br1390   1.924       .  S
C1384      C1385   1.422       .  A
C1384     Br1389   1.931       .  S
C1385      C1386   1.409       .  A
C1386     Br1387   1.922       .  S
C1391      C1392   1.409       .  A
C1391      C1396   1.407       .  A
C1391     Br1398   1.930       .  S
C1392      C1393   1.417       .  A
C1393      C1394   1.415       .  A
C1393     Br1400   1.927       .  S
C1394      C1395   1.412       .  A
C1394     Br1399   1.921       .  S
C1395      C1396   1.416       .  A
C1396     Br1397   1.918       .  S
C1401      H1402   1.082       .  S
C1401      C1407   1.558       .  S
C1401      C1406   1.544       .  S
C1401      C1405   1.525       .  S
C1403      H1404   1.106       .  S
C1403      C1409   1.566       .  S
C1403      C1408   1.568       .  S
C1403      C1410   1.575       .  S
C1405      C1408   1.369       .  D
C1405      C1732   1.507       .  S
C1406      C1409   1.381       .  D
C1406      C1702   1.523       .  S
C1407      C1410   1.421       .  D
C1407      C1712   1.539       .  S
C1408      C1745   1.512       .  S
C1409      C1695   1.520       .  S
C1410      C1722   1.565       .  S
O1411     Cu1419   2.013       .  S
O1411      C1421   1.277       .  A
O1412     Cu1769   2.014       .  S
O1412      C1422   1.279       .  A
O1413     Cu1419   2.030       .  S
O1413      C1423   1.279       .  A
O1414     Cu1769   2.039       .  S
O1414      C1424   1.282       .  A
O1415     Cu1770   2.010   1_554  S
O1415      C1424   1.277       .  A
O1416     Cu1420   2.022       .  S
O1416      C1423   1.279       .  A
O1417     Cu1770   2.001   1_554  S
O1417      C1422   1.276       .  A
O1418     Cu1420   1.989       .  S
O1418      C1421   1.275       .  A
Cu1419     O1762   2.014       .  S
Cu1419     O1764   2.037       .  S
Cu1419    Cu1420   2.369       .  S
Cu1420     O1765   2.008       .  S
Cu1420     O1767   1.997       .  S
C1421      C1662   1.488       .  S
C1422      C1685   1.476       .  S
C1423      C1672   1.484       .  S
C1424      C1652   1.489       .  S
O1425     Cu1783   1.986   1_554  S
O1425      C1435   1.272       .  A
O1426     Cu2133   1.991   1_545  S
O1426      C1436   1.273       .  A
O1427     Cu2483   2.036   1_544  S
O1427      C1437   1.283       .  A
O1428     Cu1433   2.032       .  S
O1428      C1438   1.280       .  A
O1429     Cu1434   1.969       .  S
O1429      C1438   1.271       .  A
O1430     Cu2484   1.978   1_544  S
O1430      C1437   1.271       .  A
O1431     Cu2134   2.023   1_545  S
O1431      C1436   1.281       .  A
O1432     Cu1784   2.048   1_554  S
O1432      C1435   1.284       .  A
Cu1433     O1775   1.986       .  S
Cu1433     O2126   1.990       .  S
Cu1433     O2477   2.036       .  S
Cu1433    Cu1434   2.369       .  S
Cu1434     O2480   1.977       .  S
Cu1434     O2131   2.022       .  S
Cu1434     O1782   2.047       .  S
C1435      C1642   1.495       .  S
C1436      C1622   1.471       .  S
C1437      C1612   1.471       .  S
C1438      C1632   1.490       .  S
O1439      C1449   1.271       .  A
O1440     Cu1447   2.003       .  S
O1440      C1450   1.276       .  A
O1441     Cu1797   2.034       .  S
O1441      C1451   1.281       .  A
O1442      C1452   1.279       .  A
O1443      C1452   1.278       .  A
O1444     Cu1448   2.015   1_654  S
O1444      C1451   1.276       .  A
O1445     Cu1798   2.024   1_655  S
O1445      C1450   1.280       .  A
O1446      C1449   1.279       .  A
Cu1447     O1791   2.034       .  S
Cu1447    Cu1798   2.365   1_655  S
Cu1448     O1795   2.028   1_455  S
Cu1448    Cu1797   2.365   1_456  S
C1449      C1592   1.494       .  S
C1450      C1572   1.479       .  S
C1451      C1605   1.483       .  S
C1452      C1585   1.493       .  S
C1453      C1725   1.489       .  S
C1453      C1458   1.400       .  A
C1454      C1562   1.509       .  S
C1454      C1455   1.410       .  A
C1455      C1456   1.400       .  A
C1455      H1460   1.085       .  S
C1456      C1655   1.496       .  S
C1457      C1615   1.476       .  S
C1457      C1458   1.396       .  A
C1458      H1459   1.086       .  S
C1461      C1555   1.500       .  S
C1461      C1462   1.432       .  A
C1461      C1466   1.409       .  A
C1462      C1692   1.498       .  S
C1462      C1463   1.409       .  A
C1463      C1464   1.398       .  A
C1463      H1468   1.085       .  S
C1464      C1602   1.492       .  S
C1464      C1465   1.416       .  A
C1465      C1645   1.491       .  S
C1465      C1466   1.402       .  A
C1466      H1467   1.085       .  S
C1469      C1715   1.499       .  S
C1469      C1474   1.410       .  A
C1470      C1542   1.508       .  S
C1470      C1471   1.412       .  A
C1471      C1472   1.399       .  A
C1471      H1476   1.085       .  S
C1472      C1665   1.488       .  S
C1473      C1625   1.497       .  S
C1473      C1474   1.393       .  A
C1474      H1475   1.083       .  S
C1477      C1705   1.536       .  S
C1477      C1478   1.440       .  A
C1477      C1482   1.431       .  A
C1478      C1535   1.498       .  S
C1478      C1479   1.423       .  A
C1479      C1480   1.402       .  A
C1479      H1484   1.085       .  S
C1480      C1635   1.496       .  S
C1480      C1481   1.405       .  A
C1481      C1575   1.499       .  S
C1481      C1482   1.394       .  A
C1482      H1483   1.074       .  S
C1485      C1735   1.497       .  S
C1485      C2186   1.439   1_545  A
C1485      C1490   1.418       .  A
C1486      C1522   1.525       .  S
C1486      C2185   1.439       .  A
C1486      C1487   1.415       .  A
C1487      C1488   1.405       .  A
C1487      H1492   1.084       .  S
C1488      C1582   1.496       .  S
C1488      C2189   1.415       .  A
C1489      C1675   1.502       .  S
C1489      C2188   1.415   1_545  A
C1489      C1490   1.404       .  A
C1490      H1491   1.085       .  S
C1493      C1742   1.494       .  S
C1493      C2194   1.431   1_545  A
C1493      C1498   1.407       .  A
C1494      C1512   1.491       .  S
C1494      C2193   1.431       .  A
C1494      C1495   1.398       .  A
C1495      C1496   1.392       .  A
C1495      H1500   1.086       .  S
C1496      C1595   1.481       .  S
C1496      C2197   1.420       .  A
C1497      C1682   1.497       .  S
C1497      C2196   1.420   1_545  A
C1497      C1498   1.399       .  A
C1498      H1499   1.085       .  S
C1501      H1502   1.101       .  S
C1501      C1507   1.569       .  S
C1501      C1506   1.566       .  S
C1501      C1505   1.548       .  S
C1503      H1504   1.106       .  S
C1503      C1509   1.562       .  S
C1503      C1508   1.573       .  S
C1503      C1510   1.572       .  S
C1505      C1508   1.380       .  D
C1505      C1545   1.519       .  S
C1506      C1509   1.380       .  D
C1506      C1525   1.537       .  S
C1507      C1510   1.398       .  D
C1507      C1532   1.534       .  S
C1508      C1565   1.534       .  S
C1509      C1515   1.520       .  S
C1510      C1552   1.541       .  S
C1511      C1512   1.417       .  A
C1511      C1516   1.415       .  A
C1511     Br1518   1.934       .  S
C1512      C1513   1.405       .  A
C1513      C1514   1.406       .  A
C1513     Br1520   1.937       .  S
C1514      C1515   1.420       .  A
C1514     Br1519   1.909       .  S
C1515      C1516   1.420       .  A
C1516     Br1517   1.924       .  S
C1521      C1522   1.418       .  A
C1521      C1526   1.413       .  A
C1521     Br1528   1.931       .  S
C1522      C1523   1.413       .  A
C1523      C1524   1.417       .  A
C1523     Br1530   1.908       .  S
C1524      C1525   1.420       .  A
C1524     Br1529   1.901       .  S
C1525      C1526   1.413       .  A
C1526     Br1527   1.904       .  S
C1531      C1532   1.422       .  A
C1531      C1536   1.395       .  A
C1531     Br1538   1.925       .  S
C1532      C1533   1.433       .  A
C1533      C1534   1.414       .  A
C1533     Br1540   1.922       .  S
C1534      C1535   1.409       .  A
C1534     Br1539   1.919       .  S
C1535      C1536   1.403       .  A
C1536     Br1537   1.912       .  S
C1541      C1542   1.412       .  A
C1541      C1546   1.400       .  A
C1541     Br1548   1.936       .  S
C1542      C1543   1.412       .  A
C1543      C1544   1.421       .  A
C1543     Br1550   1.924       .  S
C1544      C1545   1.418       .  A
C1544     Br1549   1.920       .  S
C1545      C1546   1.418       .  A
C1546     Br1547   1.916       .  S
C1551      C1552   1.431       .  A
C1551      C1556   1.418       .  A
C1551     Br1558   1.924       .  S
C1552      C1553   1.434       .  A
C1553      C1554   1.414       .  A
C1553     Br1560   1.925       .  S
C1554      C1555   1.405       .  A
C1554     Br1559   1.932       .  S
C1555      C1556   1.409       .  A
C1556     Br1557   1.934       .  S
C1561      C1562   1.412       .  A
C1561      C1566   1.423       .  A
C1561     Br1568   1.925       .  S
C1562      C1563   1.413       .  A
C1563      C1564   1.416       .  A
C1563     Br1570   1.935       .  S
C1564      C1565   1.421       .  A
C1564     Br1569   1.917       .  S
C1565      C1566   1.420       .  A
C1566     Br1567   1.918       .  S
C1571      C1572   1.412       .  A
C1571      C1576   1.413       .  A
C1571     Br1578   1.931       .  S
C1572      C1573   1.409       .  A
C1573      C1574   1.402       .  A
C1573     Br1580   1.928       .  S
C1574      C1575   1.407       .  A
C1574     Br1579   1.923       .  S
C1575      C1576   1.415       .  A
C1576     Br1577   1.931       .  S
C1581      C1582   1.410       .  A
C1581      C1586   1.411       .  A
C1581     Br1588   1.933       .  S
C1582      C1583   1.412       .  A
C1583      C1584   1.410       .  A
C1583     Br1590   1.926       .  S
C1584      C1585   1.415       .  A
C1584     Br1589   1.935       .  S
C1585      C1586   1.419       .  A
C1586     Br1587   1.932       .  S
C1591      C1592   1.428       .  A
C1591      C1596   1.403       .  A
C1591     Br2298   1.940       .  S
C1592      C1593   1.421       .  A
C1593      C1594   1.408       .  A
C1593     Br1600   1.935       .  S
C1594      C1595   1.411       .  A
C1594     Br1599   1.938       .  S
C1595      C1596   1.401       .  A
C1596     Br2297   1.935       .  S
Br1597     C2296   1.935   1_545  S
Br1598     C2291   1.940       .  S
C1601      C1602   1.408       .  A
C1601      C1606   1.409       .  A
C1601     Br1608   1.925       .  S
C1602      C1603   1.410       .  A
C1603      C1604   1.410       .  A
C1603     Br1610   1.931       .  S
C1604      C1605   1.411       .  A
C1604     Br1609   1.923       .  S
C1605      C1606   1.408       .  A
C1606     Br1607   1.923       .  S
C1611      C1612   1.410       .  A
C1611      C1616   1.405       .  A
C1611     Br1618   1.929       .  S
C1612      C1613   1.406       .  A
C1613      C1614   1.403       .  A
C1613     Br1620   1.919       .  S
C1614      C1615   1.407       .  A
C1615      C1616   1.407       .  A
C1616     Br1617   1.926       .  S
C1621      C1622   1.406       .  A
C1621      C1626   1.401       .  A
C1621     Br1628   1.927       .  S
C1622      C1623   1.408       .  A
C1623      C1624   1.409       .  A
C1623     Br1630   1.932       .  S
C1624      C1625   1.421       .  A
C1624     Br1629   1.935       .  S
C1625      C1626   1.411       .  A
C1631      C1632   1.418       .  A
C1631      C1636   1.401       .  A
C1631     Br1638   1.941       .  S
C1632      C1633   1.418       .  A
C1633      C1634   1.413       .  A
C1633     Br1640   1.931       .  S
C1634      C1635   1.411       .  A
C1634     Br1639   1.926       .  S
C1635      C1636   1.407       .  A
C1636     Br1637   1.919       .  S
C1641      C1642   1.416       .  A
C1641      C1646   1.413       .  A
C1641     Br1648   1.925       .  S
C1642      C1643   1.420       .  A
C1643      C1644   1.402       .  A
C1643     Br1650   1.936       .  S
C1644      C1645   1.403       .  A
C1644     Br1649   1.928       .  S
C1645      C1646   1.411       .  A
C1646     Br1647   1.929       .  S
C1651      C1652   1.413       .  A
C1651      C1656   1.413       .  A
C1651     Br1658   1.924       .  S
C1652      C1653   1.411       .  A
C1653      C1654   1.409       .  A
C1653     Br1660   1.932       .  S
C1654      C1655   1.410       .  A
C1654     Br1659   1.924       .  S
C1655      C1656   1.411       .  A
C1656     Br1657   1.929       .  S
C1661      C1662   1.421       .  A
C1661      C1666   1.411       .  A
C1661     Br1668   1.932       .  S
C1662      C1663   1.420       .  A
C1663      C1664   1.400       .  A
C1664      C1665   1.404       .  A
C1665      C1666   1.411       .  A
C1666     Br1667   1.935       .  S
C1671      C1672   1.406       .  A
C1671      C1676   1.410       .  A
C1671     Br1678   1.925       .  S
C1672      C1673   1.406       .  A
C1673      C1674   1.412       .  A
C1673     Br1680   1.923       .  S
C1674      C1675   1.412       .  A
C1674     Br1679   1.923       .  S
C1675      C1676   1.417       .  A
C1676     Br1677   1.924       .  S
C1681      C1682   1.406       .  A
C1681      C1686   1.401       .  A
C1681     Br2388   1.925       .  S
C1682      C1683   1.421       .  A
C1683      C1684   1.410       .  A
C1683     Br1690   1.934       .  S
C1684      C1685   1.411       .  A
C1684     Br1689   1.933       .  S
C1685      C1686   1.410       .  A
C1686     Br1687   1.929       .  S
Br1688     C2381   1.925       .  S
C1691      C1692   1.413       .  A
C1691      C1696   1.415       .  A
C1691     Br1698   1.928       .  S
C1692      C1693   1.410       .  A
C1693      C1694   1.414       .  A
C1693     Br1700   1.931       .  S
C1694      C1695   1.421       .  A
C1694     Br1699   1.921       .  S
C1695      C1696   1.419       .  A
C1696     Br1697   1.927       .  S
C1701      C1702   1.411       .  A
C1701      C1706   1.373       .  A
C1701     Br1708   1.897       .  S
C1702      C1703   1.431       .  A
C1703      C1704   1.437       .  A
C1703     Br1710   1.917       .  S
C1704      C1705   1.416       .  A
C1704     Br1709   1.924       .  S
C1705      C1706   1.390       .  A
C1706     Br1707   1.924       .  S
C1711      C1712   1.393       .  A
C1711      C1716   1.410       .  A
C1711     Br1718   1.929       .  S
C1712      C1713   1.450       .  A
C1713      C1714   1.417       .  A
C1713     Br1720   1.930       .  S
C1714      C1715   1.414       .  A
C1714     Br1719   1.937       .  S
C1715      C1716   1.395       .  A
C1716     Br1717   1.925       .  S
C1721      C1722   1.433       .  A
C1721      C1726   1.425       .  A
C1721     Br1728   1.914       .  S
C1722      C1723   1.423       .  A
C1723      C1724   1.396       .  A
C1723     Br1730   1.950       .  S
C1724      C1725   1.405       .  A
C1724     Br1729   1.915       .  S
C1725      C1726   1.414       .  A
C1726     Br1727   1.930       .  S
C1731      C1732   1.407       .  A
C1731      C1736   1.403       .  A
C1731     Br1738   1.924       .  S
C1732      C1733   1.413       .  A
C1733      C1734   1.417       .  A
C1733     Br1740   1.924       .  S
C1734      C1735   1.422       .  A
C1734     Br1739   1.930       .  S
C1735      C1736   1.409       .  A
C1736     Br1737   1.923       .  S
C1741      C1742   1.409       .  A
C1741      C1746   1.407       .  A
C1741     Br1748   1.930       .  S
C1742      C1743   1.417       .  A
C1743      C1744   1.415       .  A
C1743     Br1750   1.928       .  S
C1744      C1745   1.412       .  A
C1744     Br1749   1.921       .  S
C1745      C1746   1.416       .  A
C1746     Br1747   1.918       .  S
C1751      H1752   1.085       .  S
C1751      C1757   1.556       .  S
C1751      C1756   1.543       .  S
C1751      C1755   1.524       .  S
C1753      H1754   1.107       .  S
C1753      C1759   1.567       .  S
C1753      C1758   1.569       .  S
C1753      C1760   1.576       .  S
C1755      C1758   1.369       .  D
C1755      C2082   1.507       .  S
C1756      C1759   1.380       .  D
C1756      C2052   1.521       .  S
C1757      C1760   1.422       .  D
C1757      C2062   1.537       .  S
C1758      C2095   1.511       .  S
C1759      C2045   1.521       .  S
C1760      C2072   1.567       .  S
O1761     Cu1769   2.011   1_556  S
O1761      C1771   1.277       .  A
O1762      C1772   1.279       .  A
O1763     Cu1769   2.031   1_556  S
O1763      C1773   1.279       .  A
O1764      C1774   1.281       .  A
O1765      C1774   1.277       .  A
O1766     Cu1770   2.023       .  S
O1766      C1773   1.279       .  A
O1767      C1772   1.275       .  A
O1768     Cu1770   1.990       .  S
O1768      C1771   1.275       .  A
Cu1769    Cu1770   2.368   1_554  S
C1771      C2012   1.488       .  S
C1772      C2035   1.475       .  S
C1773      C2022   1.485       .  S
C1774      C2002   1.487       .  S
O1775      C1785   1.272       .  A
O1776     Cu2483   1.993   1_545  S
O1776      C1786   1.273       .  A
O1777     Cu2133   2.036   1_545  S
O1777      C1787   1.283       .  A
O1778     Cu1783   2.032       .  S
O1778      C1788   1.281       .  A
O1779     Cu1784   1.970       .  S
O1779      C1788   1.271       .  A
O1780     Cu2134   1.977   1_545  S
O1780      C1787   1.271       .  A
O1781     Cu2484   2.026   1_545  S
O1781      C1786   1.281       .  A
O1782      C1785   1.284       .  A
Cu1783     O2476   1.993       .  S
Cu1783     O2127   2.037   1_556  S
Cu1783    Cu1784   2.369       .  S
Cu1784     O2130   1.976   1_556  S
Cu1784     O2481   2.026       .  S
C1785      C1992   1.495       .  S
C1786      C1972   1.472       .  S
C1787      C1962   1.470       .  S
C1788      C1982   1.490       .  S
O1789      C1799   1.271       .  A
O1790     Cu1797   2.003   1_556  S
O1790      C1800   1.276       .  A
O1791      C1801   1.282       .  A
O1792      C1802   1.279       .  A
O1793      C1802   1.278       .  A
O1794     Cu1798   2.013   1_655  S
O1794      C1801   1.276       .  A
O1795      C1800   1.281       .  A
O1796      C1799   1.279       .  A
C1799      C1942   1.493       .  S
C1800      C1922   1.480       .  S
C1801      C1955   1.482       .  S
C1802      C1935   1.495       .  S
C1803      C2075   1.489       .  S
C1803      C1808   1.399       .  A
C1804      C1912   1.507       .  S
C1804      C1805   1.410       .  A
C1805      C1806   1.399       .  A
C1805      H1810   1.085       .  S
C1806      C2005   1.494       .  S
C1807      C1965   1.475       .  S
C1807      C1808   1.397       .  A
C1808      H1809   1.086       .  S
C1811      C1905   1.498       .  S
C1811      C1812   1.432       .  A
C1811      C1816   1.409       .  A
C1812      C2042   1.498       .  S
C1812      C1813   1.408       .  A
C1813      C1814   1.398       .  A
C1813      H1818   1.085       .  S
C1814      C1952   1.490       .  S
C1814      C1815   1.415       .  A
C1815      C1995   1.491       .  S
C1815      C1816   1.401       .  A
C1816      H1817   1.085       .  S
C1819      C2065   1.497       .  S
C1819      C1824   1.410       .  A
C1820      C1892   1.509       .  S
C1820      C1821   1.411       .  A
C1821      C1822   1.399       .  A
C1821      H1826   1.085       .  S
C1822      C2015   1.487       .  S
C1823      C1975   1.497       .  S
C1823      C1824   1.392       .  A
C1824      H1825   1.083       .  S
C1827      C2055   1.537       .  S
C1827      C1828   1.440       .  A
C1827      C1832   1.431       .  A
C1828      C1885   1.498       .  S
C1828      C1829   1.423       .  A
C1829      C1830   1.402       .  A
C1829      H1834   1.085       .  S
C1830      C1985   1.497       .  S
C1830      C1831   1.405       .  A
C1831      C1925   1.500       .  S
C1831      C1832   1.394       .  A
C1832      H1833   1.074       .  S
C1835      C2085   1.498       .  S
C1835      C2536   1.439   1_545  A
C1835      C1840   1.418       .  A
C1836      C1872   1.525       .  S
C1836      C2535   1.440       .  A
C1836      C1837   1.415       .  A
C1837      C1838   1.404       .  A
C1837      H1842   1.084       .  S
C1838      C1932   1.496       .  S
C1838      C2539   1.414       .  A
C1839      C2025   1.502       .  S
C1839      C2538   1.414   1_545  A
C1839      C1840   1.404       .  A
C1840      H1841   1.085       .  S
C1843      C2092   1.493       .  S
C1843      C2544   1.431   1_545  A
C1843      C1848   1.406       .  A
C1844      C1862   1.492       .  S
C1844      C2543   1.431       .  A
C1844      C1845   1.398       .  A
C1845      C1846   1.393       .  A
C1845      H1850   1.086       .  S
C1846      C1945   1.481       .  S
C1846      C2547   1.420       .  A
C1847      C2032   1.496       .  S
C1847      C2546   1.420   1_545  A
C1847      C1848   1.398       .  A
C1848      H1849   1.085       .  S
C1851      H1852   1.100       .  S
C1851      C1857   1.568       .  S
C1851      C1856   1.566       .  S
C1851      C1855   1.547       .  S
C1853      H1854   1.106       .  S
C1853      C1859   1.560       .  S
C1853      C1858   1.572       .  S
C1853      C1860   1.571       .  S
C1855      C1858   1.380       .  D
C1855      C1895   1.521       .  S
C1856      C1859   1.380       .  D
C1856      C1875   1.536       .  S
C1857      C1860   1.398       .  D
C1857      C1882   1.535       .  S
C1858      C1915   1.532       .  S
C1859      C1865   1.521       .  S
C1860      C1902   1.537       .  S
C1861      C1862   1.417       .  A
C1861      C1866   1.415       .  A
C1861     Br1868   1.934       .  S
C1862      C1863   1.405       .  A
C1863      C1864   1.407       .  A
C1863     Br1870   1.937       .  S
C1864      C1865   1.420       .  A
C1864     Br1869   1.911       .  S
C1865      C1866   1.419       .  A
C1866     Br1867   1.924       .  S
C1871      C1872   1.419       .  A
C1871      C1876   1.412       .  A
C1871     Br1878   1.931       .  S
C1872      C1873   1.413       .  A
C1873      C1874   1.416       .  A
C1873     Br1880   1.908       .  S
C1874      C1875   1.420       .  A
C1874     Br1879   1.901       .  S
C1875      C1876   1.412       .  A
C1876     Br1877   1.906       .  S
C1881      C1882   1.423       .  A
C1881      C1886   1.395       .  A
C1881     Br1888   1.926       .  S
C1882      C1883   1.434       .  A
C1883      C1884   1.415       .  A
C1883     Br1890   1.923       .  S
C1884      C1885   1.409       .  A
C1884     Br1889   1.920       .  S
C1885      C1886   1.403       .  A
C1886     Br1887   1.912       .  S
C1891      C1892   1.413       .  A
C1891      C1896   1.401       .  A
C1891     Br1898   1.937       .  S
C1892      C1893   1.412       .  A
C1893      C1894   1.421       .  A
C1893     Br1900   1.924       .  S
C1894      C1895   1.418       .  A
C1894     Br1899   1.920       .  S
C1895      C1896   1.418       .  A
C1896     Br1897   1.917       .  S
C1901      C1902   1.431       .  A
C1901      C1906   1.416       .  A
C1901     Br1908   1.925       .  S
C1902      C1903   1.434       .  A
C1903      C1904   1.414       .  A
C1903     Br1910   1.925       .  S
C1904      C1905   1.405       .  A
C1904     Br1909   1.932       .  S
C1905      C1906   1.409       .  A
C1906     Br1907   1.934       .  S
C1911      C1912   1.412       .  A
C1911      C1916   1.422       .  A
C1911     Br1918   1.925       .  S
C1912      C1913   1.413       .  A
C1913      C1914   1.415       .  A
C1913     Br1920   1.934       .  S
C1914      C1915   1.420       .  A
C1914     Br1919   1.918       .  S
C1915      C1916   1.420       .  A
C1916     Br1917   1.918       .  S
C1921      C1922   1.412       .  A
C1921      C1926   1.414       .  A
C1921     Br1928   1.930       .  S
C1922      C1923   1.409       .  A
C1923      C1924   1.402       .  A
C1923     Br1930   1.928       .  S
C1924      C1925   1.407       .  A
C1924     Br1929   1.923       .  S
C1925      C1926   1.416       .  A
C1926     Br1927   1.931       .  S
C1931      C1932   1.410       .  A
C1931      C1936   1.412       .  A
C1931     Br1938   1.933       .  S
C1932      C1933   1.412       .  A
C1933      C1934   1.410       .  A
C1933     Br1940   1.926       .  S
C1934      C1935   1.415       .  A
C1934     Br1939   1.935       .  S
C1935      C1936   1.419       .  A
C1936     Br1937   1.931       .  S
C1941      C1942   1.428       .  A
C1941      C1946   1.403       .  A
C1941     Br2648   1.940       .  S
C1942      C1943   1.421       .  A
C1943      C1944   1.408       .  A
C1943     Br1950   1.935       .  S
C1944      C1945   1.410       .  A
C1944     Br1949   1.939       .  S
C1945      C1946   1.401       .  A
C1946     Br2647   1.935       .  S
Br1947     C2646   1.935   1_545  S
Br1948     C2641   1.940       .  S
C1951      C1952   1.408       .  A
C1951      C1956   1.409       .  A
C1951     Br1958   1.925       .  S
C1952      C1953   1.409       .  A
C1953      C1954   1.409       .  A
C1953     Br1960   1.931       .  S
C1954      C1955   1.411       .  A
C1954     Br1959   1.922       .  S
C1955      C1956   1.408       .  A
C1956     Br1957   1.922       .  S
C1961      C1962   1.410       .  A
C1961      C1966   1.405       .  A
C1961     Br1968   1.929       .  S
C1962      C1963   1.406       .  A
C1963      C1964   1.403       .  A
C1963     Br1970   1.918       .  S
C1964      C1965   1.407       .  A
C1965      C1966   1.407       .  A
C1966     Br1967   1.926       .  S
C1971      C1972   1.406       .  A
C1971      C1976   1.401       .  A
C1971     Br1978   1.926       .  S
C1972      C1973   1.408       .  A
C1973      C1974   1.410       .  A
C1973     Br1980   1.931       .  S
C1974      C1975   1.421       .  A
C1974     Br1979   1.935       .  S
C1975      C1976   1.410       .  A
C1981      C1982   1.420       .  A
C1981      C1986   1.403       .  A
C1981     Br1988   1.941       .  S
C1982      C1983   1.417       .  A
C1983      C1984   1.412       .  A
C1983     Br1990   1.931       .  S
C1984      C1985   1.410       .  A
C1984     Br1989   1.926       .  S
C1985      C1986   1.408       .  A
C1986     Br1987   1.921       .  S
C1991      C1992   1.416       .  A
C1991      C1996   1.413       .  A
C1991     Br1998   1.924       .  S
C1992      C1993   1.420       .  A
C1993      C1994   1.402       .  A
C1993     Br2000   1.936       .  S
C1994      C1995   1.403       .  A
C1994     Br1999   1.928       .  S
C1995      C1996   1.410       .  A
C1996     Br1997   1.928       .  S
C2001      C2002   1.412       .  A
C2001      C2006   1.412       .  A
C2001     Br2008   1.924       .  S
C2002      C2003   1.411       .  A
C2003      C2004   1.409       .  A
C2003     Br2010   1.932       .  S
C2004      C2005   1.410       .  A
C2004     Br2009   1.924       .  S
C2005      C2006   1.411       .  A
C2006     Br2007   1.928       .  S
C2011      C2012   1.422       .  A
C2011      C2016   1.410       .  A
C2011     Br2018   1.932       .  S
C2012      C2013   1.420       .  A
C2013      C2014   1.399       .  A
C2014      C2015   1.404       .  A
C2015      C2016   1.410       .  A
C2016     Br2017   1.935       .  S
C2021      C2022   1.406       .  A
C2021      C2026   1.410       .  A
C2021     Br2028   1.925       .  S
C2022      C2023   1.406       .  A
C2023      C2024   1.412       .  A
C2023     Br2030   1.923       .  S
C2024      C2025   1.412       .  A
C2024     Br2029   1.923       .  S
C2025      C2026   1.416       .  A
C2026     Br2027   1.924       .  S
C2031      C2032   1.406       .  A
C2031      C2036   1.400       .  A
C2031     Br2738   1.924       .  S
C2032      C2033   1.421       .  A
C2033      C2034   1.409       .  A
C2033     Br2040   1.933       .  S
C2034      C2035   1.410       .  A
C2034     Br2039   1.934       .  S
C2035      C2036   1.410       .  A
C2036     Br2037   1.930       .  S
Br2038     C2731   1.924       .  S
C2041      C2042   1.413       .  A
C2041      C2046   1.415       .  A
C2041     Br2048   1.928       .  S
C2042      C2043   1.410       .  A
C2043      C2044   1.414       .  A
C2043     Br2050   1.930       .  S
C2044      C2045   1.420       .  A
C2044     Br2049   1.920       .  S
C2045      C2046   1.420       .  A
C2046     Br2047   1.926       .  S
C2051      C2052   1.411       .  A
C2051      C2056   1.373       .  A
C2051     Br2058   1.898       .  S
C2052      C2053   1.431       .  A
C2053      C2054   1.436       .  A
C2053     Br2060   1.917       .  S
C2054      C2055   1.416       .  A
C2054     Br2059   1.924       .  S
C2055      C2056   1.390       .  A
C2056     Br2057   1.924       .  S
C2061      C2062   1.392       .  A
C2061      C2066   1.410       .  A
C2061     Br2068   1.930       .  S
C2062      C2063   1.451       .  A
C2063      C2064   1.416       .  A
C2063     Br2070   1.931       .  S
C2064      C2065   1.413       .  A
C2064     Br2069   1.937       .  S
C2065      C2066   1.394       .  A
C2066     Br2067   1.925       .  S
C2071      C2072   1.434       .  A
C2071      C2076   1.426       .  A
C2071     Br2078   1.915       .  S
C2072      C2073   1.424       .  A
C2073      C2074   1.396       .  A
C2073     Br2080   1.951       .  S
C2074      C2075   1.405       .  A
C2074     Br2079   1.915       .  S
C2075      C2076   1.413       .  A
C2076     Br2077   1.930       .  S
C2081      C2082   1.406       .  A
C2081      C2086   1.403       .  A
C2081     Br2088   1.924       .  S
C2082      C2083   1.413       .  A
C2083      C2084   1.417       .  A
C2083     Br2090   1.924       .  S
C2084      C2085   1.422       .  A
C2084     Br2089   1.931       .  S
C2085      C2086   1.409       .  A
C2086     Br2087   1.922       .  S
C2091      C2092   1.409       .  A
C2091      C2096   1.407       .  A
C2091     Br2098   1.931       .  S
C2092      C2093   1.417       .  A
C2093      C2094   1.414       .  A
C2093     Br2100   1.928       .  S
C2094      C2095   1.412       .  A
C2094     Br2099   1.920       .  S
C2095      C2096   1.416       .  A
C2096     Br2097   1.918       .  S
C2101      H2102   1.078       .  S
C2101      C2107   1.557       .  S
C2101      C2106   1.543       .  S
C2101      C2105   1.525       .  S
C2103      H2104   1.106       .  S
C2103      C2109   1.567       .  S
C2103      C2108   1.568       .  S
C2103      C2110   1.576       .  S
C2105      C2108   1.368       .  D
C2105      C2432   1.505       .  S
C2106      C2109   1.380       .  D
C2106      C2402   1.522       .  S
C2107      C2110   1.421       .  D
C2107      C2412   1.538       .  S
C2108      C2445   1.512       .  S
C2109      C2395   1.519       .  S
C2110      C2422   1.566       .  S
O2111     Cu2119   2.011       .  S
O2111      C2121   1.277       .  A
O2112     Cu2469   2.014       .  S
O2112      C2122   1.279       .  A
O2113     Cu2119   2.029       .  S
O2113      C2123   1.279       .  A
O2114     Cu2469   2.040       .  S
O2114      C2124   1.282       .  A
O2115     Cu2470   2.011   1_554  S
O2115      C2124   1.277       .  A
O2116     Cu2120   2.022       .  S
O2116      C2123   1.279       .  A
O2117     Cu2470   2.003   1_554  S
O2117      C2122   1.276       .  A
O2118     Cu2120   1.990       .  S
O2118      C2121   1.275       .  A
Cu2119     O2462   2.013       .  S
Cu2119     O2464   2.035       .  S
Cu2119    Cu2120   2.369       .  S
Cu2120     O2465   2.008       .  S
Cu2120     O2467   1.999       .  S
C2121      C2362   1.487       .  S
C2122      C2385   1.477       .  S
C2123      C2372   1.484       .  S
C2124      C2352   1.489       .  S
O2125     Cu2483   1.985   1_554  S
O2125      C2135   1.272       .  A
O2126      C2136   1.273       .  A
O2127      C2137   1.283       .  A
O2128     Cu2133   2.032       .  S
O2128      C2138   1.280       .  A
O2129     Cu2134   1.968       .  S
O2129      C2138   1.271       .  A
O2130      C2137   1.270       .  A
O2131      C2136   1.280       .  A
O2132     Cu2484   2.048   1_554  S
O2132      C2135   1.284       .  A
Cu2133     O2475   1.986       .  S
Cu2133    Cu2134   2.369       .  S
Cu2134     O2482   2.047       .  S
C2135      C2342   1.496       .  S
C2136      C2322   1.470       .  S
C2137      C2312   1.470       .  S
C2138      C2332   1.490       .  S
O2139      C2149   1.271       .  A
O2140     Cu2147   2.003       .  S
O2140      C2150   1.276       .  A
O2141     Cu2497   2.036       .  S
O2141      C2151   1.282       .  A
O2142      C2152   1.279       .  A
O2143      C2152   1.278       .  A
O2144     Cu2148   2.015   1_654  S
O2144      C2151   1.276       .  A
O2145     Cu2498   2.024   1_655  S
O2145      C2150   1.280       .  A
O2146      C2149   1.279       .  A
Cu2147     O2491   2.033       .  S
Cu2147    Cu2498   2.366   1_655  S
Cu2148     O2495   2.028   1_455  S
Cu2148    Cu2497   2.365   1_456  S
C2149      C2292   1.492       .  S
C2150      C2272   1.479       .  S
C2151      C2305   1.484       .  S
C2152      C2285   1.494       .  S
C2153      C2425   1.489       .  S
C2153      C2158   1.399       .  A
C2154      C2262   1.510       .  S
C2154      C2155   1.410       .  A
C2155      C2156   1.400       .  A
C2155      H2160   1.085       .  S
C2156      C2355   1.495       .  S
C2157      C2315   1.474       .  S
C2157      C2158   1.396       .  A
C2158      H2159   1.086       .  S
C2161      C2255   1.500       .  S
C2161      C2162   1.432       .  A
C2161      C2166   1.409       .  A
C2162      C2392   1.498       .  S
C2162      C2163   1.409       .  A
C2163      C2164   1.399       .  A
C2163      H2168   1.085       .  S
C2164      C2302   1.493       .  S
C2164      C2165   1.417       .  A
C2165      C2345   1.492       .  S
C2165      C2166   1.403       .  A
C2166      H2167   1.085       .  S
C2169      C2415   1.499       .  S
C2169      C2174   1.410       .  A
C2170      C2242   1.508       .  S
C2170      C2171   1.411       .  A
C2171      C2172   1.399       .  A
C2171      H2176   1.085       .  S
C2172      C2365   1.488       .  S
C2173      C2325   1.496       .  S
C2173      C2174   1.393       .  A
C2174      H2175   1.083       .  S
C2177      C2405   1.536       .  S
C2177      C2178   1.439       .  A
C2177      C2182   1.431       .  A
C2178      C2235   1.497       .  S
C2178      C2179   1.423       .  A
C2179      C2180   1.403       .  A
C2179      H2184   1.085       .  S
C2180      C2335   1.497       .  S
C2180      C2181   1.405       .  A
C2181      C2275   1.499       .  S
C2181      C2182   1.394       .  A
C2182      H2183   1.074       .  S
C2185      C2435   1.496       .  S
C2185      C2190   1.418       .  A
C2186      C2222   1.525       .  S
C2186      C2187   1.416       .  A
C2187      C2188   1.405       .  A
C2187      H2192   1.084       .  S
C2188      C2282   1.497       .  S
C2189      C2375   1.502       .  S
C2189      C2190   1.403       .  A
C2190      H2191   1.085       .  S
C2193      C2442   1.494       .  S
C2193      C2198   1.407       .  A
C2194      C2212   1.491       .  S
C2194      C2195   1.397       .  A
C2195      C2196   1.392       .  A
C2195      H2200   1.086       .  S
C2196      C2295   1.481       .  S
C2197      C2382   1.498       .  S
C2197      C2198   1.399       .  A
C2198      H2199   1.085       .  S
C2201      H2202   1.101       .  S
C2201      C2207   1.569       .  S
C2201      C2206   1.565       .  S
C2201      C2205   1.548       .  S
C2203      H2204   1.106       .  S
C2203      C2209   1.562       .  S
C2203      C2208   1.574       .  S
C2203      C2210   1.572       .  S
C2205      C2208   1.380       .  D
C2205      C2245   1.519       .  S
C2206      C2209   1.380       .  D
C2206      C2225   1.537       .  S
C2207      C2210   1.399       .  D
C2207      C2232   1.534       .  S
C2208      C2265   1.535       .  S
C2209      C2215   1.520       .  S
C2210      C2252   1.541       .  S
C2211      C2212   1.417       .  A
C2211      C2216   1.415       .  A
C2211     Br2218   1.935       .  S
C2212      C2213   1.405       .  A
C2213      C2214   1.407       .  A
C2213     Br2220   1.937       .  S
C2214      C2215   1.420       .  A
C2214     Br2219   1.909       .  S
C2215      C2216   1.420       .  A
C2216     Br2217   1.924       .  S
C2221      C2222   1.418       .  A
C2221      C2226   1.412       .  A
C2221     Br2228   1.931       .  S
C2222      C2223   1.413       .  A
C2223      C2224   1.417       .  A
C2223     Br2230   1.908       .  S
C2224      C2225   1.419       .  A
C2224     Br2229   1.900       .  S
C2225      C2226   1.412       .  A
C2226     Br2227   1.904       .  S
C2231      C2232   1.423       .  A
C2231      C2236   1.395       .  A
C2231     Br2238   1.925       .  S
C2232      C2233   1.433       .  A
C2233      C2234   1.415       .  A
C2233     Br2240   1.922       .  S
C2234      C2235   1.408       .  A
C2234     Br2239   1.919       .  S
C2235      C2236   1.402       .  A
C2236     Br2237   1.912       .  S
C2241      C2242   1.412       .  A
C2241      C2246   1.400       .  A
C2241     Br2248   1.936       .  S
C2242      C2243   1.412       .  A
C2243      C2244   1.421       .  A
C2243     Br2250   1.924       .  S
C2244      C2245   1.419       .  A
C2244     Br2249   1.920       .  S
C2245      C2246   1.417       .  A
C2246     Br2247   1.917       .  S
C2251      C2252   1.432       .  A
C2251      C2256   1.417       .  A
C2251     Br2258   1.925       .  S
C2252      C2253   1.435       .  A
C2253      C2254   1.414       .  A
C2253     Br2260   1.925       .  S
C2254      C2255   1.405       .  A
C2254     Br2259   1.932       .  S
C2255      C2256   1.409       .  A
C2256     Br2257   1.934       .  S
C2261      C2262   1.413       .  A
C2261      C2266   1.424       .  A
C2261     Br2268   1.925       .  S
C2262      C2263   1.413       .  A
C2263      C2264   1.416       .  A
C2263     Br2270   1.934       .  S
C2264      C2265   1.421       .  A
C2264     Br2269   1.917       .  S
C2265      C2266   1.420       .  A
C2266     Br2267   1.918       .  S
C2271      C2272   1.412       .  A
C2271      C2276   1.413       .  A
C2271     Br2278   1.931       .  S
C2272      C2273   1.409       .  A
C2273      C2274   1.403       .  A
C2273     Br2280   1.929       .  S
C2274      C2275   1.408       .  A
C2274     Br2279   1.924       .  S
C2275      C2276   1.415       .  A
C2276     Br2277   1.931       .  S
C2281      C2282   1.410       .  A
C2281      C2286   1.411       .  A
C2281     Br2288   1.933       .  S
C2282      C2283   1.412       .  A
C2283      C2284   1.410       .  A
C2283     Br2290   1.926       .  S
C2284      C2285   1.415       .  A
C2284     Br2289   1.935       .  S
C2285      C2286   1.419       .  A
C2286     Br2287   1.931       .  S
C2291      C2292   1.427       .  A
C2291      C2296   1.403       .  A
C2292      C2293   1.421       .  A
C2293      C2294   1.408       .  A
C2293     Br2300   1.934       .  S
C2294      C2295   1.411       .  A
C2294     Br2299   1.939       .  S
C2295      C2296   1.401       .  A
C2301      C2302   1.408       .  A
C2301      C2306   1.409       .  A
C2301     Br2308   1.925       .  S
C2302      C2303   1.410       .  A
C2303      C2304   1.410       .  A
C2303     Br2310   1.931       .  S
C2304      C2305   1.411       .  A
C2304     Br2309   1.923       .  S
C2305      C2306   1.408       .  A
C2306     Br2307   1.923       .  S
C2311      C2312   1.410       .  A
C2311      C2316   1.404       .  A
C2311     Br2318   1.928       .  S
C2312      C2313   1.406       .  A
C2313      C2314   1.403       .  A
C2313     Br2320   1.919       .  S
C2314      C2315   1.407       .  A
C2315      C2316   1.406       .  A
C2316     Br2317   1.926       .  S
C2321      C2322   1.406       .  A
C2321      C2326   1.401       .  A
C2321     Br2328   1.927       .  S
C2322      C2323   1.408       .  A
C2323      C2324   1.409       .  A
C2323     Br2330   1.932       .  S
C2324      C2325   1.421       .  A
C2324     Br2329   1.935       .  S
C2325      C2326   1.410       .  A
C2331      C2332   1.419       .  A
C2331      C2336   1.401       .  A
C2331     Br2338   1.941       .  S
C2332      C2333   1.418       .  A
C2333      C2334   1.413       .  A
C2333     Br2340   1.931       .  S
C2334      C2335   1.410       .  A
C2334     Br2339   1.926       .  S
C2335      C2336   1.407       .  A
C2336     Br2337   1.919       .  S
C2341      C2342   1.417       .  A
C2341      C2346   1.414       .  A
C2341     Br2348   1.925       .  S
C2342      C2343   1.420       .  A
C2343      C2344   1.401       .  A
C2343     Br2350   1.936       .  S
C2344      C2345   1.403       .  A
C2344     Br2349   1.928       .  S
C2345      C2346   1.411       .  A
C2346     Br2347   1.929       .  S
C2351      C2352   1.413       .  A
C2351      C2356   1.413       .  A
C2351     Br2358   1.923       .  S
C2352      C2353   1.411       .  A
C2353      C2354   1.409       .  A
C2353     Br2360   1.931       .  S
C2354      C2355   1.410       .  A
C2354     Br2359   1.923       .  S
C2355      C2356   1.411       .  A
C2356     Br2357   1.929       .  S
C2361      C2362   1.421       .  A
C2361      C2366   1.411       .  A
C2361     Br2368   1.932       .  S
C2362      C2363   1.420       .  A
C2363      C2364   1.400       .  A
C2364      C2365   1.404       .  A
C2365      C2366   1.411       .  A
C2366     Br2367   1.935       .  S
C2371      C2372   1.406       .  A
C2371      C2376   1.411       .  A
C2371     Br2378   1.926       .  S
C2372      C2373   1.406       .  A
C2373      C2374   1.412       .  A
C2373     Br2380   1.923       .  S
C2374      C2375   1.412       .  A
C2374     Br2379   1.923       .  S
C2375      C2376   1.417       .  A
C2376     Br2377   1.924       .  S
C2381      C2382   1.406       .  A
C2381      C2386   1.402       .  A
C2382      C2383   1.421       .  A
C2383      C2384   1.410       .  A
C2383     Br2390   1.933       .  S
C2384      C2385   1.411       .  A
C2384     Br2389   1.934       .  S
C2385      C2386   1.411       .  A
C2386     Br2387   1.929       .  S
C2391      C2392   1.413       .  A
C2391      C2396   1.415       .  A
C2391     Br2398   1.928       .  S
C2392      C2393   1.410       .  A
C2393      C2394   1.413       .  A
C2393     Br2400   1.930       .  S
C2394      C2395   1.420       .  A
C2394     Br2399   1.921       .  S
C2395      C2396   1.419       .  A
C2396     Br2397   1.927       .  S
C2401      C2402   1.412       .  A
C2401      C2406   1.374       .  A
C2401     Br2408   1.897       .  S
C2402      C2403   1.431       .  A
C2403      C2404   1.436       .  A
C2403     Br2410   1.917       .  S
C2404      C2405   1.416       .  A
C2404     Br2409   1.924       .  S
C2405      C2406   1.390       .  A
C2406     Br2407   1.924       .  S
C2411      C2412   1.393       .  A
C2411      C2416   1.409       .  A
C2411     Br2418   1.929       .  S
C2412      C2413   1.451       .  A
C2413      C2414   1.416       .  A
C2413     Br2420   1.931       .  S
C2414      C2415   1.414       .  A
C2414     Br2419   1.937       .  S
C2415      C2416   1.395       .  A
C2416     Br2417   1.924       .  S
C2421      C2422   1.434       .  A
C2421      C2426   1.425       .  A
C2421     Br2428   1.915       .  S
C2422      C2423   1.423       .  A
C2423      C2424   1.396       .  A
C2423     Br2430   1.950       .  S
C2424      C2425   1.405       .  A
C2424     Br2429   1.915       .  S
C2425      C2426   1.414       .  A
C2426     Br2427   1.930       .  S
C2431      C2432   1.406       .  A
C2431      C2436   1.403       .  A
C2431     Br2438   1.924       .  S
C2432      C2433   1.413       .  A
C2433      C2434   1.417       .  A
C2433     Br2440   1.925       .  S
C2434      C2435   1.422       .  A
C2434     Br2439   1.931       .  S
C2435      C2436   1.409       .  A
C2436     Br2437   1.923       .  S
C2441      C2442   1.409       .  A
C2441      C2446   1.407       .  A
C2441     Br2448   1.931       .  S
C2442      C2443   1.417       .  A
C2443      C2444   1.415       .  A
C2443     Br2450   1.927       .  S
C2444      C2445   1.412       .  A
C2444     Br2449   1.921       .  S
C2445      C2446   1.417       .  A
C2446     Br2447   1.918       .  S
C2451      H2452   1.072       .  S
C2451      C2457   1.557       .  S
C2451      C2456   1.544       .  S
C2451      C2455   1.525       .  S
C2453      H2454   1.105       .  S
C2453      C2459   1.568       .  S
C2453      C2458   1.569       .  S
C2453      C2460   1.577       .  S
C2455      C2458   1.368       .  D
C2455      C2782   1.507       .  S
C2456      C2459   1.380       .  D
C2456      C2752   1.521       .  S
C2457      C2460   1.421       .  D
C2457      C2762   1.537       .  S
C2458      C2795   1.511       .  S
C2459      C2745   1.521       .  S
C2460      C2772   1.566       .  S
O2461     Cu2469   2.010   1_556  S
O2461      C2471   1.277       .  A
O2462      C2472   1.279       .  A
O2463     Cu2469   2.032   1_556  S
O2463      C2473   1.279       .  A
O2464      C2474   1.281       .  A
O2465      C2474   1.277       .  A
O2466     Cu2470   2.024       .  S
O2466      C2473   1.279       .  A
O2467      C2472   1.276       .  A
O2468     Cu2470   1.991       .  S
O2468      C2471   1.275       .  A
Cu2469    Cu2470   2.368   1_554  S
C2471      C2712   1.487       .  S
C2472      C2735   1.476       .  S
C2473      C2722   1.486       .  S
C2474      C2702   1.486       .  S
O2475      C2485   1.272       .  A
O2476      C2486   1.273       .  A
O2477      C2487   1.283       .  A
O2478     Cu2483   2.030       .  S
O2478      C2488   1.280       .  A
O2479     Cu2484   1.969       .  S
O2479      C2488   1.271       .  A
O2480      C2487   1.271       .  A
O2481      C2486   1.281       .  A
O2482      C2485   1.284       .  A
Cu2483    Cu2484   2.368       .  S
C2485      C2692   1.495       .  S
C2486      C2672   1.472       .  S
C2487      C2662   1.470       .  S
C2488      C2682   1.489       .  S
O2489      C2499   1.271       .  A
O2490     Cu2497   2.002   1_556  S
O2490      C2500   1.275       .  A
O2491      C2501   1.281       .  A
O2492      C2502   1.279       .  A
O2493      C2502   1.278       .  A
O2494     Cu2498   2.011   1_655  S
O2494      C2501   1.276       .  A
O2495      C2500   1.281       .  A
O2496      C2499   1.279       .  A
C2499      C2642   1.494       .  S
C2500      C2622   1.481       .  S
C2501      C2655   1.481       .  S
C2502      C2635   1.494       .  S
C2503      C2775   1.490       .  S
C2503      C2508   1.400       .  A
C2504      C2612   1.508       .  S
C2504      C2505   1.410       .  A
C2505      C2506   1.399       .  A
C2505      H2510   1.085       .  S
C2506      C2705   1.493       .  S
C2507      C2665   1.475       .  S
C2507      C2508   1.397       .  A
C2508      H2509   1.086       .  S
C2511      C2605   1.498       .  S
C2511      C2512   1.432       .  A
C2511      C2516   1.409       .  A
C2512      C2742   1.498       .  S
C2512      C2513   1.408       .  A
C2513      C2514   1.398       .  A
C2513      H2518   1.085       .  S
C2514      C2652   1.490       .  S
C2514      C2515   1.415       .  A
C2515      C2695   1.491       .  S
C2515      C2516   1.401       .  A
C2516      H2517   1.085       .  S
C2519      C2765   1.498       .  S
C2519      C2524   1.410       .  A
C2520      C2592   1.510       .  S
C2520      C2521   1.411       .  A
C2521      C2522   1.400       .  A
C2521      H2526   1.085       .  S
C2522      C2715   1.487       .  S
C2523      C2675   1.497       .  S
C2523      C2524   1.392       .  A
C2524      H2525   1.083       .  S
C2527      C2755   1.536       .  S
C2527      C2528   1.440       .  A
C2527      C2532   1.431       .  A
C2528      C2585   1.497       .  S
C2528      C2529   1.422       .  A
C2529      C2530   1.402       .  A
C2529      H2534   1.085       .  S
C2530      C2685   1.496       .  S
C2530      C2531   1.405       .  A
C2531      C2625   1.499       .  S
C2531      C2532   1.394       .  A
C2532      H2533   1.074       .  S
C2535      C2785   1.497       .  S
C2535      C2540   1.418       .  A
C2536      C2572   1.524       .  S
C2536      C2537   1.415       .  A
C2537      C2538   1.404       .  A
C2537      H2542   1.084       .  S
C2538      C2632   1.496       .  S
C2539      C2725   1.502       .  S
C2539      C2540   1.403       .  A
C2540      H2541   1.085       .  S
C2543      C2792   1.493       .  S
C2543      C2548   1.407       .  A
C2544      C2562   1.491       .  S
C2544      C2545   1.398       .  A
C2545      C2546   1.393       .  A
C2545      H2550   1.086       .  S
C2546      C2645   1.481       .  S
C2547      C2732   1.497       .  S
C2547      C2548   1.398       .  A
C2548      H2549   1.085       .  S
C2551      H2552   1.100       .  S
C2551      C2557   1.568       .  S
C2551      C2556   1.566       .  S
C2551      C2555   1.547       .  S
C2553      H2554   1.106       .  S
C2553      C2559   1.560       .  S
C2553      C2558   1.573       .  S
C2553      C2560   1.572       .  S
C2555      C2558   1.380       .  D
C2555      C2595   1.521       .  S
C2556      C2559   1.379       .  D
C2556      C2575   1.536       .  S
C2557      C2560   1.399       .  D
C2557      C2582   1.534       .  S
C2558      C2615   1.533       .  S
C2559      C2565   1.520       .  S
C2560      C2602   1.539       .  S
C2561      C2562   1.417       .  A
C2561      C2566   1.415       .  A
C2561     Br2568   1.934       .  S
C2562      C2563   1.405       .  A
C2563      C2564   1.407       .  A
C2563     Br2570   1.936       .  S
C2564      C2565   1.420       .  A
C2564     Br2569   1.910       .  S
C2565      C2566   1.419       .  A
C2566     Br2567   1.924       .  S
C2571      C2572   1.419       .  A
C2571      C2576   1.413       .  A
C2571     Br2578   1.931       .  S
C2572      C2573   1.412       .  A
C2573      C2574   1.416       .  A
C2573     Br2580   1.909       .  S
C2574      C2575   1.419       .  A
C2574     Br2579   1.900       .  S
C2575      C2576   1.412       .  A
C2576     Br2577   1.906       .  S
C2581      C2582   1.423       .  A
C2581      C2586   1.394       .  A
C2581     Br2588   1.926       .  S
C2582      C2583   1.433       .  A
C2583      C2584   1.415       .  A
C2583     Br2590   1.922       .  S
C2584      C2585   1.409       .  A
C2584     Br2589   1.920       .  S
C2585      C2586   1.402       .  A
C2586     Br2587   1.913       .  S
C2591      C2592   1.413       .  A
C2591      C2596   1.401       .  A
C2591     Br2598   1.937       .  S
C2592      C2593   1.412       .  A
C2593      C2594   1.421       .  A
C2593     Br2600   1.924       .  S
C2594      C2595   1.418       .  A
C2594     Br2599   1.920       .  S
C2595      C2596   1.418       .  A
C2596     Br2597   1.916       .  S
C2601      C2602   1.432       .  A
C2601      C2606   1.417       .  A
C2601     Br2608   1.925       .  S
C2602      C2603   1.434       .  A
C2603      C2604   1.414       .  A
C2603     Br2610   1.925       .  S
C2604      C2605   1.405       .  A
C2604     Br2609   1.932       .  S
C2605      C2606   1.408       .  A
C2606     Br2607   1.934       .  S
C2611      C2612   1.412       .  A
C2611      C2616   1.423       .  A
C2611     Br2618   1.925       .  S
C2612      C2613   1.413       .  A
C2613      C2614   1.416       .  A
C2613     Br2620   1.934       .  S
C2614      C2615   1.420       .  A
C2614     Br2619   1.918       .  S
C2615      C2616   1.420       .  A
C2616     Br2617   1.918       .  S
C2621      C2622   1.412       .  A
C2621      C2626   1.413       .  A
C2621     Br2628   1.931       .  S
C2622      C2623   1.409       .  A
C2623      C2624   1.403       .  A
C2623     Br2630   1.928       .  S
C2624      C2625   1.407       .  A
C2624     Br2629   1.924       .  S
C2625      C2626   1.416       .  A
C2626     Br2627   1.931       .  S
C2631      C2632   1.410       .  A
C2631      C2636   1.411       .  A
C2631     Br2638   1.933       .  S
C2632      C2633   1.412       .  A
C2633      C2634   1.410       .  A
C2633     Br2640   1.926       .  S
C2634      C2635   1.415       .  A
C2634     Br2639   1.935       .  S
C2635      C2636   1.419       .  A
C2636     Br2637   1.930       .  S
C2641      C2642   1.428       .  A
C2641      C2646   1.403       .  A
C2642      C2643   1.422       .  A
C2643      C2644   1.408       .  A
C2643     Br2650   1.934       .  S
C2644      C2645   1.410       .  A
C2644     Br2649   1.939       .  S
C2645      C2646   1.401       .  A
C2651      C2652   1.407       .  A
C2651      C2656   1.408       .  A
C2651     Br2658   1.924       .  S
C2652      C2653   1.409       .  A
C2653      C2654   1.409       .  A
C2653     Br2660   1.931       .  S
C2654      C2655   1.411       .  A
C2654     Br2659   1.922       .  S
C2655      C2656   1.408       .  A
C2656     Br2657   1.923       .  S
C2661      C2662   1.409       .  A
C2661      C2666   1.405       .  A
C2661     Br2668   1.928       .  S
C2662      C2663   1.406       .  A
C2663      C2664   1.403       .  A
C2663     Br2670   1.919       .  S
C2664      C2665   1.408       .  A
C2665      C2666   1.407       .  A
C2666     Br2667   1.926       .  S
C2671      C2672   1.406       .  A
C2671      C2676   1.401       .  A
C2671     Br2678   1.926       .  S
C2672      C2673   1.408       .  A
C2673      C2674   1.410       .  A
C2673     Br2680   1.931       .  S
C2674      C2675   1.421       .  A
C2674     Br2679   1.935       .  S
C2675      C2676   1.410       .  A
C2681      C2682   1.419       .  A
C2681      C2686   1.402       .  A
C2681     Br2688   1.941       .  S
C2682      C2683   1.418       .  A
C2683      C2684   1.413       .  A
C2683     Br2690   1.931       .  S
C2684      C2685   1.410       .  A
C2684     Br2689   1.926       .  S
C2685      C2686   1.408       .  A
C2686     Br2687   1.920       .  S
C2691      C2692   1.416       .  A
C2691      C2696   1.414       .  A
C2691     Br2698   1.924       .  S
C2692      C2693   1.420       .  A
C2693      C2694   1.402       .  A
C2693     Br2700   1.935       .  S
C2694      C2695   1.403       .  A
C2694     Br2699   1.928       .  S
C2695      C2696   1.411       .  A
C2696     Br2697   1.928       .  S
C2701      C2702   1.412       .  A
C2701      C2706   1.412       .  A
C2701     Br2708   1.924       .  S
C2702      C2703   1.411       .  A
C2703      C2704   1.408       .  A
C2703     Br2710   1.932       .  S
C2704      C2705   1.410       .  A
C2704     Br2709   1.924       .  S
C2705      C2706   1.410       .  A
C2706     Br2707   1.928       .  S
C2711      C2712   1.421       .  A
C2711      C2716   1.411       .  A
C2711     Br2718   1.932       .  S
C2712      C2713   1.420       .  A
C2713      C2714   1.399       .  A
C2714      C2715   1.404       .  A
C2715      C2716   1.410       .  A
C2716     Br2717   1.935       .  S
C2721      C2722   1.407       .  A
C2721      C2726   1.411       .  A
C2721     Br2728   1.925       .  S
C2722      C2723   1.406       .  A
C2723      C2724   1.412       .  A
C2723     Br2730   1.923       .  S
C2724      C2725   1.412       .  A
C2724     Br2729   1.923       .  S
C2725      C2726   1.416       .  A
C2726     Br2727   1.924       .  S
C2731      C2732   1.407       .  A
C2731      C2736   1.401       .  A
C2732      C2733   1.421       .  A
C2733      C2734   1.410       .  A
C2733     Br2740   1.933       .  S
C2734      C2735   1.411       .  A
C2734     Br2739   1.934       .  S
C2735      C2736   1.410       .  A
C2736     Br2737   1.930       .  S
C2741      C2742   1.413       .  A
C2741      C2746   1.415       .  A
C2741     Br2748   1.928       .  S
C2742      C2743   1.410       .  A
C2743      C2744   1.414       .  A
C2743     Br2750   1.930       .  S
C2744      C2745   1.420       .  A
C2744     Br2749   1.920       .  S
C2745      C2746   1.420       .  A
C2746     Br2747   1.926       .  S
C2751      C2752   1.411       .  A
C2751      C2756   1.373       .  A
C2751     Br2758   1.897       .  S
C2752      C2753   1.431       .  A
C2753      C2754   1.436       .  A
C2753     Br2760   1.916       .  S
C2754      C2755   1.416       .  A
C2754     Br2759   1.924       .  S
C2755      C2756   1.390       .  A
C2756     Br2757   1.923       .  S
C2761      C2762   1.392       .  A
C2761      C2766   1.409       .  A
C2761     Br2768   1.930       .  S
C2762      C2763   1.451       .  A
C2763      C2764   1.416       .  A
C2763     Br2770   1.931       .  S
C2764      C2765   1.413       .  A
C2764     Br2769   1.937       .  S
C2765      C2766   1.395       .  A
C2766     Br2767   1.925       .  S
C2771      C2772   1.433       .  A
C2771      C2776   1.425       .  A
C2771     Br2778   1.914       .  S
C2772      C2773   1.424       .  A
C2773      C2774   1.396       .  A
C2773     Br2780   1.951       .  S
C2774      C2775   1.405       .  A
C2774     Br2779   1.915       .  S
C2775      C2776   1.413       .  A
C2776     Br2777   1.930       .  S
C2781      C2782   1.406       .  A
C2781      C2786   1.403       .  A
C2781     Br2788   1.924       .  S
C2782      C2783   1.413       .  A
C2783      C2784   1.417       .  A
C2783     Br2790   1.924       .  S
C2784      C2785   1.422       .  A
C2784     Br2789   1.931       .  S
C2785      C2786   1.409       .  A
C2786     Br2787   1.922       .  S
C2791      C2792   1.410       .  A
C2791      C2796   1.407       .  A
C2791     Br2798   1.931       .  S
C2792      C2793   1.417       .  A
C2793      C2794   1.415       .  A
C2793     Br2800   1.927       .  S
C2794      C2795   1.412       .  A
C2794     Br2799   1.921       .  S
C2795      C2796   1.417       .  A
C2796     Br2797   1.917       .  S
