geometry optimzed in LAMMPS
_audit_creation_date              2020-11-30 
_audit_creation_method            'lammps2cif' 
_symmetry_space_group_name_H-M    'P1' 
_symmetry_Int_Tables_number       1 
_symmetry_cell_setting            triclinic 
loop_ 
_symmetry_equiv_pos_as_xyz 
  x,y,z 
_cell_length_a                    32.626019124653396 
_cell_length_b                    32.62849758078037 
_cell_length_c                    24.845563456031417 
_cell_angle_alpha                 90.0416229495407 
_cell_angle_beta                  90.04489963211354 
_cell_angle_gamma                 120.063947963601 
loop_ 
_atom_site_label 
_atom_site_type_symbol 
_atom_site_fract_x 
_atom_site_fract_y 
_atom_site_fract_z 
_atom_site_charge 
C1          C  0.57614484  0.28367273  0.26709397     0.01140
C2          C  0.72882654  0.43498262  0.26939897     0.01140
C3          C  0.72719982  0.28243662  0.26736941     0.01140
C4          C  0.67796846  0.33472269  0.15834934     0.01140
C5          C  0.29124666  0.56826330  0.26708339     0.01140
C6          C  0.29274836  0.72071561  0.26777521     0.01140
C7          C  0.44390610  0.71951024  0.26873804     0.01140
C8          C  0.34321346  0.67001319  0.15825796     0.01140
C9          C  0.73304526  0.28827760  0.88300770     0.01140
C10         C  0.72897727  0.43786630  0.88321503     0.01140
C11         C  0.57910200  0.28382281  0.88092694     0.01140
C12         C  0.67934673  0.33608463  0.99198541     0.01140
C13         C  0.44531495  0.72349883  0.88261563     0.01140
C14         C  0.29551289  0.56947781  0.88201242     0.01140
C15         C  0.29137230  0.71907140  0.88219643     0.01140
C16         C  0.34390160  0.67058090  0.99188512     0.01140
O17         O  0.20927825  0.39141675  0.46318101    -0.54190
C18         C  0.22346507  0.43222614  0.31146819     0.78440
O19         O  0.19545043  0.28357894  0.34336268    -0.55340
C20         C  0.18881703  0.35483896  0.49228727     0.78420
C21         C  0.08256157  0.30135145  0.35896541     0.80810
Cd22       Cd  0.18332592  0.34809936  0.37683700     1.37460
O23         O  0.22064395  0.43319048  0.36203564    -0.54180
O24         O  0.10421317  0.33979723  0.38477694    -0.52990
C25         C  0.23813635  0.30242021  0.35831781     0.80770
O26         O  0.10727708  0.28499863  0.33964262    -0.55360
O27         O  0.20736661  0.39204623  0.28962414    -0.53820
O28         O  0.16602875  0.31544445  0.46848028    -0.53810
O29         O  0.25609042  0.34279184  0.38002988    -0.52980
O30         O  0.23258023  0.43451166  0.78621400    -0.54190
C31         C  0.19097415  0.35527869  0.65602267     0.78440
O32         O  0.20048000  0.28501002  0.80631682    -0.55340
C33         C  0.23015753  0.43346174  0.83690358     0.78420
C34         C  0.08774462  0.30350581  0.78968226     0.80810
Cd35       Cd  0.18835043  0.34916286  0.77153300     1.37470
O36         O  0.20907682  0.39212926  0.68492253    -0.54180
O37         O  0.10985901  0.34255292  0.76520248    -0.52990
C38         C  0.24267608  0.30291655  0.79000625     0.80770
O39         O  0.11193141  0.28597458  0.80745146    -0.55360
O40         O  0.17188143  0.31589660  0.68005930    -0.53820
O41         O  0.20850268  0.39313821  0.85884924    -0.53810
O42         O  0.26044746  0.34269372  0.76702206    -0.52980
O43         O  0.62209536  0.80835043  0.46555276    -0.54190
C44         C  0.58008200  0.78633012  0.31381876     0.78440
O45         O  0.72868404  0.90446364  0.34333391    -0.55340
C46         C  0.65905612  0.82621945  0.49426772     0.78420
C47         C  0.71004335  0.77313480  0.36024260     0.80810
Cd48       Cd  0.66467801  0.82827704  0.37873087     1.37470
O49         O  0.57923182  0.78453233  0.36454275    -0.54180
O50         O  0.67090201  0.75612388  0.38452397    -0.52990
C51         C  0.71112742  0.92888120  0.36025352     0.80770
O52         O  0.72770219  0.81493459  0.34268130    -0.55360
O53         O  0.62032683  0.80752706  0.29164088    -0.53820
O54         O  0.69833657  0.84485215  0.47003535    -0.53810
O55         O  0.67167418  0.90699195  0.38395573    -0.52980
O56         O  0.58076858  0.79601328  0.78790549    -0.54190
C57         C  0.65959582  0.82837376  0.65802638     0.78440
O58         O  0.72973063  0.90914723  0.81029512    -0.55340
C59         C  0.58151745  0.79284642  0.83844790     0.78420
C60         C  0.71085364  0.77776350  0.79204770     0.80810
Cd61       Cd  0.66593724  0.83329125  0.77351463     1.37470
O62         O  0.62287752  0.80838362  0.68696459    -0.54180
O63         O  0.67103858  0.76047025  0.76910765    -0.52990
C64         C  0.71334102  0.93406049  0.79167060     0.80770
O65         O  0.72948306  0.82011262  0.80818094    -0.55360
O66         O  0.69897295  0.85046471  0.68201557    -0.53820
O67         O  0.62161399  0.80883948  0.86047883    -0.53810
O68         O  0.67454090  0.91260272  0.76649309    -0.52980
O69         O  0.81954455  0.19812477  0.46429704    -0.54190
C70         C  0.79495058  0.21435859  0.31226379     0.78440
O71         O  0.91467532  0.18584359  0.34386343    -0.55340
C72         C  0.83641515  0.17832646  0.49332497     0.78420
C73         C  0.78336864  0.07278164  0.35987826     0.80810
Cd74       Cd  0.83806918  0.17349304  0.37785471     1.37460
O75         O  0.79204767  0.21259254  0.36291986    -0.54180
O76         O  0.76646815  0.09475398  0.38469455    -0.52990
C77         C  0.93864842  0.22836266  0.35938940     0.80770
O78         O  0.82490565  0.09715571  0.34160396    -0.55360
O79         O  0.81778407  0.19691109  0.29045156    -0.53820
O80         O  0.85391718  0.15646112  0.46943161    -0.53810
O81         O  0.91632407  0.24609029  0.38169663    -0.52980
O82         O  0.80357621  0.22414894  0.78745503    -0.54190
C83         C  0.83850874  0.18041867  0.65705513     0.78420
O84         O  0.91928827  0.19062015  0.80777773    -0.55340
C85         C  0.80221105  0.22162087  0.83813875     0.78420
C86         C  0.78736818  0.07794561  0.79111443     0.80810
Cd87       Cd  0.84302384  0.17845464  0.77253229     1.37470
O88         O  0.81959322  0.19821992  0.68605799    -0.54180
O89         O  0.77024845  0.10041237  0.76782594    -0.52990
C90         C  0.94382227  0.23241204  0.79029606     0.80770
O91         O  0.82963516  0.10174728  0.80753950    -0.55360
O92         O  0.85936910  0.16186564  0.68097621    -0.53820
O93         O  0.82010460  0.19920726  0.85997633    -0.53810
O94         O  0.92197604  0.24991884  0.76641287    -0.52980
O95         O  0.81239188  0.61371071  0.46593477    -0.54190
C96         C  0.79661415  0.57125005  0.31451118     0.78440
O97         O  0.82479055  0.72034912  0.34547240    -0.55340
C98         C  0.83280111  0.65065756  0.49457835     0.78420
C99         C  0.93777560  0.70258433  0.36038039     0.80810
Cd100      Cd  0.83716798  0.65604127  0.37904638     1.37460
O101        O  0.79931997  0.57071496  0.36512985    -0.54180
O102        O  0.91640348  0.66463097  0.38700768    -0.52990
C103        C  0.78211130  0.70144751  0.36034370     0.80770
O104        O  0.91283879  0.71852223  0.34062810    -0.55360
O105        O  0.81294869  0.61125997  0.29228052    -0.53820
O106        O  0.85502001  0.68980073  0.47027428    -0.53810
O107        O  0.76425844  0.66111606  0.38202465    -0.52980
O108        O  0.81367716  0.61491189  0.68735215    -0.54190
C109        C  0.79417781  0.57394075  0.83903953     0.78440
O110        O  0.91214923  0.72120370  0.81014047    -0.55340
C111        C  0.83213112  0.65162924  0.65834270     0.78420
C112        C  0.78151260  0.70466667  0.79236548     0.80810
Cd113      Cd  0.83563390  0.65821117  0.77383854     1.37460
O114        O  0.79230287  0.57287424  0.78831862    -0.54180
O115        O  0.76352545  0.66469156  0.76969888    -0.52990
C116        C  0.93633565  0.70392312  0.79168479     0.80770
O117        O  0.82384318  0.72268792  0.80835394    -0.55360
O118        O  0.81517489  0.61428202  0.86112685    -0.53820
O119        O  0.85198773  0.69113062  0.68226238    -0.53810
O120        O  0.91418176  0.66508077  0.76669948    -0.52980
O121        O  0.20180272  0.80720673  0.46432220    -0.54190
C122        C  0.22522660  0.78916891  0.31253233     0.78440
O123        O  0.10557080  0.81787503  0.34366451    -0.55340
C124        C  0.18485911  0.82704923  0.49316136     0.78420
C125        C  0.23696661  0.93117739  0.35886432     0.80810
Cd126      Cd  0.18239063  0.83062269  0.37765117     1.37460
O127        O  0.22791861  0.79092124  0.36321028    -0.54180
O128        O  0.25396992  0.90943413  0.38395464    -0.52990
C129        C  0.08168561  0.77554539  0.35971359     0.80770
O130        O  0.19537161  0.90662989  0.34067553    -0.55360
O131        O  0.20268930  0.80684197  0.29048476    -0.53820
O132        O  0.16689165  0.84838397  0.46906250    -0.53810
O133        O  0.10414714  0.75807240  0.38226644    -0.52980
O134        O  0.22067021  0.78347262  0.78675456    -0.54190
C135        C  0.18423627  0.82636129  0.65693033     0.78440
O136        O  0.10508325  0.81659197  0.80943833    -0.55340
C137        C  0.22207177  0.78577225  0.83745806     0.78420
C138        C  0.23670518  0.92954105  0.79052701     0.80810
Cd139      Cd  0.18085128  0.82890992  0.77244988     1.37470
O140        O  0.20312383  0.80839955  0.68572141    -0.54180
O141        O  0.25383773  0.90680821  0.76788102    -0.52990
C142        C  0.08023846  0.77505248  0.79121901     0.80770
O143        O  0.19434913  0.90595779  0.80658249    -0.55360
O144        O  0.16393128  0.84537519  0.68108064    -0.53820
O145        O  0.20409141  0.80799135  0.85958245    -0.53810
O146        O  0.10170564  0.75775611  0.76612111    -0.52980
O147        O  0.44113114  0.21878905  0.36200757    -0.54190
C148        C  0.36235973  0.17887034  0.49199374     0.78440
O149        O  0.29216535  0.18861106  0.34131397    -0.55340
C150        C  0.44004951  0.21721621  0.31127507     0.78420
C151        C  0.30924801  0.07506444  0.35840962     0.80810
Cd152      Cd  0.35579276  0.17577353  0.37649615     1.37460
O153        O  0.39907887  0.19685613  0.46298896    -0.54180
O154        O  0.34852823  0.09699293  0.38257849    -0.52990
C155        C  0.31017288  0.23069584  0.35815173     0.80770
O156        O  0.29191424  0.09948079  0.34083822    -0.55360
O157        O  0.32286231  0.15964189  0.46806935    -0.53820
O158        O  0.39969927  0.19643596  0.28918979    -0.53810
O159        O  0.34975182  0.24807056  0.38164099    -0.52980
O160        O  0.40035004  0.19808924  0.68437185    -0.54190
C161        C  0.44281172  0.21467934  0.83585021     0.78440
O162        O  0.29442760  0.18733175  0.80546208    -0.55340
C163        C  0.36335309  0.17812456  0.65575973     0.78420
C164        C  0.31077363  0.07342673  0.79008463     0.80810
Cd165      Cd  0.35801172  0.17405591  0.77129973     1.37470
O166        O  0.44332609  0.21162812  0.78526736    -0.54180
O167        O  0.34908784  0.09462565  0.76407761    -0.52990
C168        C  0.31331584  0.22979801  0.78980109     0.80770
O169        O  0.29480994  0.09854726  0.80922121    -0.55360
O170        O  0.40281138  0.19855217  0.85804879    -0.53820
O171        O  0.32417874  0.15646108  0.68009831    -0.53810
O172        O  0.35330273  0.24712008  0.76737566    -0.52980
C173        C  0.36516297  0.18003105  0.54961703    -0.09640
C174        C  0.36548082  0.17981864  0.59811214    -0.11200
C175        C  0.26369806  0.98013388  0.79590070    -0.09640
C176        C  0.28570118  0.02284044  0.79578812    -0.11200
C177        C  0.28468512  0.02445333  0.35300437    -0.09640
C178        C  0.26322228  0.98174465  0.35312697    -0.11200
C179        C  0.18584985  0.82553572  0.55079592    -0.09640
C180        C  0.18567171  0.82534044  0.59929272    -0.11200
C181        C  0.98694456  0.72807570  0.79705451    -0.09640
C182        C  0.02965622  0.74918720  0.79693207    -0.11200
C183        C  0.98835473  0.72728977  0.35462720    -0.09640
C184        C  0.03106753  0.74895675  0.35443797    -0.11200
C185        C  0.83101696  0.64850871  0.55222342    -0.09640
C186        C  0.83082717  0.64882000  0.60071897    -0.11200
C187        C  0.83586598  0.18046054  0.55094272    -0.09640
C188        C  0.83648454  0.18107733  0.59943495    -0.11200
C189        C  0.76044985  0.02739371  0.79681847    -0.09640
C190        C  0.73845445  0.98468854  0.79700806    -0.11200
C191        C  0.73458420  0.75097175  0.79765293    -0.09640
C192        C  0.75553859  0.72925695  0.79776483    -0.11200
C193        C  0.73416919  0.74671440  0.35475852    -0.09640
C194        C  0.75556980  0.72544351  0.35479554    -0.11200
C195        C  0.75707193  0.02217002  0.35451671    -0.09640
C196        C  0.73562684  0.97946127  0.35463902    -0.11200
C197        C  0.65676764  0.82557898  0.55191000    -0.09640
C198        C  0.65693186  0.82622092  0.60040340    -0.11200
C199        C  0.28967464  0.25668200  0.79534037    -0.09640
C200        C  0.26872290  0.27839993  0.79541388    -0.11200
C201        C  0.03717032  0.27942270  0.79528295    -0.09640
C202        C  0.99445970  0.25833174  0.79548774    -0.11200
C203        C  0.03193522  0.27658707  0.35364531    -0.09640
C204        C  0.98922407  0.25490888  0.35378776    -0.11200
C205        C  0.26459129  0.27833585  0.35279786    -0.09640
C206        C  0.28598491  0.25705947  0.35274017    -0.11200
C207        C  0.19117861  0.35765537  0.54989768    -0.09640
C208        C  0.19181787  0.35778345  0.59839090    -0.11200
C209        C  0.24375728  0.76410350  0.86743775    -0.09640
C210        C  0.26453786  0.74408545  0.88156339    -0.11200
C211        C  0.30167173  0.70943976  0.93811405    -0.09640
C212        C  0.31847414  0.69394553  0.97038338    -0.11200
C213        C  0.27066426  0.51758967  0.88130954    -0.09640
C214        C  0.25110473  0.47678183  0.86706350    -0.11200
C215        C  0.30505316  0.58943638  0.93795221    -0.09640
C216        C  0.32053149  0.62176231  0.97026455    -0.11200
C217        C  0.22891719  0.58915104  0.89107130    -0.09720
C218        C  0.26194224  0.58562975  0.85707323     0.12430
C219        C  0.27114044  0.61126173  0.80891473    -0.09720
C220        C  0.26992098  0.65348338  0.80894845    -0.09720
C221        C  0.25956727  0.66890818  0.85714464     0.12430
C222        C  0.22770040  0.63152003  0.89109911    -0.09720
H223        H  0.21364378  0.56555315  0.92510706     0.16420
H224        H  0.27815035  0.59885939  0.77191148     0.16420
H225        H  0.27600715  0.67273211  0.77197428     0.16420
H226        H  0.21155416  0.63872049  0.92516373     0.16420
C227        C  0.49721928  0.75039520  0.88226384    -0.09640
C228        C  0.53808852  0.77121093  0.86830676    -0.11200
C229        C  0.42518401  0.71302127  0.93842902    -0.09640
C230        C  0.39278608  0.69611008  0.97056477    -0.11200
C231        C  0.35773470  0.74350752  0.80932735    -0.09720
C232        C  0.34122306  0.75260685  0.85750414     0.12430
C233        C  0.37774712  0.78566607  0.89166793    -0.09720
C234        C  0.42141820  0.78705326  0.89172936    -0.09720
C235        C  0.42703756  0.75531443  0.85764338     0.12430
C236        C  0.40129893  0.74498046  0.80937420    -0.09720
H237        H  0.33832842  0.73643462  0.77228444     0.16420
H238        H  0.36935036  0.80085501  0.92574830     0.16420
H239        H  0.44473580  0.80319267  0.92589061     0.16420
H240        H  0.41456373  0.73905088  0.77237448     0.16420
C241        C  0.40350252  0.65734337  0.80930809    -0.09720
C242        C  0.42905892  0.67374381  0.85760072     0.12430
C243        C  0.42544086  0.63714078  0.89156581    -0.09720
C244        C  0.38304091  0.59350575  0.89136623    -0.09720
C245        C  0.34572600  0.58801055  0.85723498     0.12430
C246        C  0.36124141  0.61386604  0.80912456    -0.09720
H247        H  0.41597714  0.67680430  0.77236804     0.16420
H248        H  0.44898177  0.64544821  0.92571777     0.16420
H249        H  0.37575692  0.57009720  0.92538047     0.16420
H250        H  0.34204368  0.60074557  0.77205325     0.16420
C251        C  0.52719951  0.25699391  0.87982981    -0.09640
C252        C  0.48636364  0.23628287  0.86561439    -0.11200
C253        C  0.63072924  0.31070984  0.96974857    -0.09640
C254        C  0.59869487  0.29399906  0.93704909    -0.11200
C255        C  0.75375237  0.48975810  0.88301946    -0.09640
C256        C  0.77329065  0.53061198  0.86906074    -0.11200
C257        C  0.71882233  0.41757807  0.93895149    -0.09640
C258        C  0.70298231  0.38505525  0.97092682    -0.11200
C259        C  0.64132957  0.41372650  0.89105008    -0.09720
C260        C  0.67903536  0.41940755  0.85757318     0.12430
C261        C  0.66408372  0.39384888  0.80914005    -0.09720
C262        C  0.62179536  0.35040314  0.80848019    -0.09720
C263        C  0.59565342  0.33372063  0.85628132     0.12430
C264        C  0.59889589  0.37012593  0.89038717    -0.09720
H265        H  0.64822252  0.43692360  0.92524304     0.16420
H266        H  0.68372422  0.40717281  0.77243437     0.16420
H267        H  0.60976091  0.33117821  0.77128131     0.16420
H268        H  0.57494994  0.36162268  0.92410709     0.16420
C269        C  0.75983868  0.26322439  0.88258949    -0.09640
C270        C  0.78061728  0.24322611  0.86839638    -0.11200
C271        C  0.72217273  0.29754053  0.93881366    -0.09640
C272        C  0.70501927  0.31285265  0.97084452    -0.11200
C273        C  0.79664196  0.37575684  0.89322987    -0.09720
C274        C  0.76514371  0.33860017  0.85864510     0.12430
C275        C  0.75536843  0.35434769  0.81032698    -0.09720
C276        C  0.75424392  0.39661921  0.81038278    -0.09720
C277        C  0.76287590  0.42192997  0.85877055     0.12430
C278        C  0.79547611  0.41815161  0.89330536    -0.09720
H279        H  0.81238233  0.36831953  0.92753206     0.16420
H280        H  0.74968600  0.33532471  0.77320368     0.16420
H281        H  0.74772811  0.40930564  0.77329712     0.16420
H282        H  0.81036153  0.44152217  0.92766393     0.16420
C283        C  0.66747215  0.26432107  0.80903723    -0.09720
C284        C  0.68344456  0.25494793  0.85746412     0.12430
C285        C  0.64654999  0.22165764  0.89094199    -0.09720
C286        C  0.60283554  0.22017408  0.89023957    -0.09720
C287        C  0.59755938  0.25208408  0.85613471     0.12430
C288        C  0.62384718  0.26271561  0.80832392    -0.09720
H289        H  0.68732178  0.27167699  0.77234839     0.16420
H290        H  0.65457761  0.20628190  0.92512340     0.16420
H291        H  0.57913620  0.20381812  0.92397499     0.16420
H292        H  0.61097300  0.26881769  0.77111505     0.16420
C293        C  0.34356544  0.67030294  0.09935197    -0.09640
C294        C  0.34378165  0.67048248  0.05079285    -0.11200
C295        C  0.49581401  0.74507475  0.26963502    -0.09640
C296        C  0.53664374  0.76507188  0.28385544    -0.11200
C297        C  0.42412893  0.70985539  0.21270535    -0.09640
C298        C  0.39194535  0.69402497  0.18019088    -0.11200
C299        C  0.24688835  0.76750810  0.28249782    -0.09640
C300        C  0.26715540  0.74697961  0.26835813    -0.11200
C301        C  0.30290055  0.71088118  0.21188381    -0.09640
C302        C  0.31901838  0.69465410  0.17966850    -0.11200
C303        C  0.35822288  0.74281628  0.34138597    -0.09720
C304        C  0.34269318  0.75296325  0.29312745     0.12430
C305        C  0.37998659  0.78540861  0.25946167    -0.09720
C306        C  0.42283449  0.78511839  0.25975900    -0.09720
C307        C  0.42690052  0.75238504  0.29370469     0.12430
C308        C  0.40094525  0.74256939  0.34169150    -0.09720
H309        H  0.33869520  0.73619577  0.37822748     0.16420
H310        H  0.37256094  0.80137985  0.22539627     0.16420
H311        H  0.44653559  0.80085021  0.22589183     0.16420
H312        H  0.41344446  0.73577569  0.37875933     0.16420
C313        C  0.26508179  0.51635763  0.26732048    -0.09640
C314        C  0.24473644  0.47551636  0.28136847    -0.11200
C315        C  0.31828642  0.62104549  0.17935388    -0.09640
C316        C  0.30168147  0.58852591  0.21133605    -0.11200
C317        C  0.40002179  0.65333998  0.34129703    -0.09720
C318        C  0.42605312  0.66935559  0.29334999     0.12430
C319        C  0.42134957  0.63241015  0.25912658    -0.09720
C320        C  0.37808746  0.58961699  0.25861720    -0.09720
C321        C  0.34105359  0.58525141  0.29237444     0.12430
C322        C  0.35689753  0.61070704  0.34079306    -0.09720
H323        H  0.41274507  0.67245828  0.37847560     0.16420
H324        H  0.44499613  0.64017354  0.22524733     0.16420
H325        H  0.37029932  0.56625807  0.22438740     0.16420
H326        H  0.33729930  0.59788157  0.37759997     0.16420
C327        C  0.26832962  0.61118614  0.34024953    -0.09720
C328        C  0.25866942  0.58569760  0.29186635     0.12430
C329        C  0.22667298  0.59074400  0.25760105    -0.09720
C330        C  0.22716028  0.63397528  0.25777361    -0.09720
C331        C  0.25962268  0.67065258  0.29220990     0.12430
C332        C  0.26886404  0.65429462  0.34041195    -0.09720
H333        H  0.27441390  0.59804401  0.37725110     0.16420
H334        H  0.21102370  0.56747467  0.22329967     0.16420
H335        H  0.21183711  0.64211431  0.22361457     0.16420
H336        H  0.27536838  0.67348622  0.37753900     0.16420
C337        C  0.67833110  0.33532856  0.09944576    -0.09640
C338        C  0.67873321  0.33572409  0.05088890    -0.11200
C339        C  0.75289968  0.25628297  0.26780416    -0.09640
C340        C  0.77322889  0.23583556  0.28200638    -0.11200
C341        C  0.71767499  0.29304557  0.21155645    -0.09640
C342        C  0.70190529  0.30974519  0.17951150    -0.11200
C343        C  0.77527653  0.52771658  0.28472807    -0.09640
C344        C  0.75498479  0.48688819  0.27049896    -0.11200
C345        C  0.71891801  0.41539067  0.21327641    -0.09640
C346        C  0.70265606  0.38335131  0.18057762    -0.11200
C347        C  0.79349336  0.41263587  0.26010368    -0.09720
C348        C  0.76117190  0.41725206  0.29419256     0.12430
C349        C  0.75093666  0.39102808  0.34201514    -0.09720
C350        C  0.75019031  0.34781861  0.34133838    -0.09720
C351        C  0.75995732  0.33216905  0.29292520     0.12430
C352        C  0.79285608  0.36933266  0.25943993    -0.09720
H353        H  0.80955234  0.43640819  0.22636132     0.16420
H354        H  0.74450997  0.40365592  0.37921132     0.16420
H355        H  0.74316232  0.32803586  0.37803807     0.16420
H356        H  0.80853410  0.36167107  0.22526850     0.16420
C357        C  0.48337242  0.23830846  0.28123392    -0.09640
C358        C  0.52423577  0.25823202  0.26727057    -0.11200
C359        C  0.62898072  0.31038795  0.17939702    -0.09640
C360        C  0.59644668  0.29409347  0.21136486    -0.11200
C361        C  0.61818285  0.25939139  0.33996699    -0.09720
C362        C  0.59280090  0.25035837  0.29157621     0.12430
C363        C  0.59724912  0.21815370  0.25705170    -0.09720
C364        C  0.64008459  0.21783991  0.25712362    -0.09720
C365        C  0.67698901  0.24975364  0.29170586     0.12430
C366        C  0.66090492  0.25913983  0.34001876    -0.09720
H367        H  0.60523223  0.26557941  0.37705098     0.16420
H368        H  0.57394325  0.20296217  0.22269126     0.16420
H369        H  0.64789815  0.20239413  0.22282892     0.16420
H370        H  0.68000731  0.26516082  0.37714123     0.16420
C371        C  0.61938820  0.34878025  0.34116123    -0.09720
C372        C  0.59388352  0.33349385  0.29271744     0.12430
C373        C  0.59890546  0.37094198  0.25923634    -0.09720
C374        C  0.64210368  0.41379885  0.25992230    -0.09720
C375        C  0.67878375  0.41770038  0.29404335     0.12430
C376        C  0.66242822  0.39149487  0.34184139    -0.09720
H377        H  0.60631228  0.32907218  0.37786302     0.16420
H378        H  0.57562807  0.36367719  0.22503402     0.16420
H379        H  0.65024024  0.43767606  0.22620201     0.16420
H380        H  0.68159421  0.40378493  0.37904856     0.16420
loop_ 
_geom_bond_atom_site_label_1 
_geom_bond_atom_site_label_2 
_geom_bond_distance 
_geom_bond_site_symmetry_2 
_ccdc_geom_bond_type 
C1          C358   1.466       .  S
C1          C360   1.499       .  S
C1          C362   1.562       .  S
C1          C372   1.561       .  S
C2          C344   1.466       .  S
C2          C345   1.499       .  S
C2          C348   1.562       .  S
C2          C375   1.561       .  S
C3          C339   1.466       .  S
C3          C341   1.499       .  S
C3          C351   1.562       .  S
C3          C365   1.562       .  S
C4          C337   1.464       .  S
C4          C342   1.479       .  S
C4          C346   1.479       .  S
C4          C359   1.479       .  S
C5          C313   1.466       .  S
C5          C316   1.499       .  S
C5          C321   1.561       .  S
C5          C328   1.562       .  S
C6          C300   1.466       .  S
C6          C301   1.499       .  S
C6          C304   1.562       .  S
C6          C331   1.562       .  S
C7          C295   1.466       .  S
C7          C297   1.499       .  S
C7          C307   1.562       .  S
C7          C318   1.561       .  S
C8          C293   1.464       .  S
C8          C298   1.479       .  S
C8          C302   1.479       .  S
C8          C315   1.479       .  S
C9          C269   1.466       .  S
C9          C271   1.499       .  S
C9          C274   1.562       .  S
C9          C284   1.562       .  S
C10         C255   1.466       .  S
C10         C257   1.499       .  S
C10         C260   1.561       .  S
C10         C277   1.562       .  S
C11         C251   1.466       .  S
C11         C254   1.499       .  S
C11         C263   1.562       .  S
C11         C287   1.562       .  S
C12         C253   1.479       .  S
C12         C258   1.479       .  S
C12         C272   1.479       .  S
C12         C338   1.464   1_556  S
C13         C227   1.466       .  S
C13         C229   1.499       .  S
C13         C235   1.562       .  S
C13         C242   1.562       .  S
C14         C213   1.466       .  S
C14         C215   1.499       .  S
C14         C218   1.562       .  S
C14         C245   1.561       .  S
C15         C210   1.466       .  S
C15         C211   1.499       .  S
C15         C221   1.562       .  S
C15         C232   1.562       .  S
C16         C212   1.479       .  S
C16         C216   1.479       .  S
C16         C230   1.480       .  S
C16         C294   1.464   1_556  S
O17          C20   1.264       .  A
O17         Cd22   2.472       .  S
C18          O27   1.264       .  A
C18          O23   1.261       .  A
C18         C314   1.434       .  S
O19          C25   1.264       .  A
O19         Cd22   2.472       .  S
C20          O28   1.263       .  A
C20         C207   1.434       .  S
C21          O26   1.264       .  A
C21          O24   1.263       .  A
C21         C203   1.436       .  S
Cd22         O29   2.467       .  S
Cd22         O28   2.458       .  S
Cd22         O27   2.499       .  S
Cd22         O23   2.437       .  S
Cd22         O26   2.475       .  S
Cd22         O24   2.465       .  S
C25          O29   1.263       .  A
C25         C205   1.436       .  S
O30          C33   1.261       .  A
O30         Cd35   2.438       .  S
C31          O40   1.263       .  A
C31          O36   1.264       .  A
C31         C208   1.434       .  S
O32          C38   1.263       .  A
O32         Cd35   2.473       .  S
C33          O41   1.264       .  A
C33         C214   1.434       .  S
C34          O39   1.264       .  A
C34          O37   1.263       .  A
C34         C201   1.436       .  S
Cd35         O42   2.467       .  S
Cd35         O41   2.499       .  S
Cd35         O40   2.458       .  S
Cd35         O36   2.472       .  S
Cd35         O39   2.474       .  S
Cd35         O37   2.465       .  S
C38          O42   1.263       .  A
C38         C200   1.436       .  S
O43          C46   1.264       .  A
O43         Cd48   2.471       .  S
C44          O53   1.264       .  A
C44          O49   1.261       .  A
C44         C296   1.434       .  S
O45          C51   1.264       .  A
O45         Cd48   2.474       .  S
C46          O54   1.263       .  A
C46         C197   1.434       .  S
C47          O52   1.263       .  A
C47          O50   1.263       .  A
C47         C193   1.436       .  S
Cd48         O55   2.465       .  S
Cd48         O54   2.458       .  S
Cd48         O53   2.499       .  S
Cd48         O49   2.438       .  S
Cd48         O52   2.474       .  S
Cd48         O50   2.467       .  S
C51          O55   1.263       .  A
C51         C196   1.436       .  S
O56          C59   1.261       .  A
O56         Cd61   2.438       .  S
C57          O66   1.263       .  A
C57          O62   1.264       .  A
C57         C198   1.434       .  S
O58          C64   1.264       .  A
O58         Cd61   2.475       .  S
C59          O67   1.264       .  A
C59         C228   1.434       .  S
C60          O65   1.264       .  A
C60          O63   1.263       .  A
C60         C191   1.436       .  S
Cd61         O68   2.466       .  S
Cd61         O67   2.500       .  S
Cd61         O66   2.459       .  S
Cd61         O62   2.471       .  S
Cd61         O65   2.473       .  S
Cd61         O63   2.466       .  S
C64          O68   1.263       .  A
C64         C190   1.436       .  S
O69          C72   1.264       .  A
O69         Cd74   2.472       .  S
C70          O79   1.264       .  A
C70          O75   1.261       .  A
C70         C340   1.434       .  S
O71          C77   1.264       .  A
O71         Cd74   2.473       .  S
C72          O80   1.263       .  A
C72         C187   1.434       .  S
C73          O78   1.264       .  A
C73          O76   1.263       .  A
C73         C195   1.436       .  S
Cd74         O81   2.465       .  S
Cd74         O80   2.458       .  S
Cd74         O79   2.499       .  S
Cd74         O75   2.437       .  S
Cd74         O78   2.475       .  S
Cd74         O76   2.465       .  S
C77          O81   1.263       .  A
C77         C204   1.436       .  S
O82          C85   1.261       .  A
O82         Cd87   2.437       .  S
C83          O92   1.263       .  A
C83          O88   1.264       .  A
C83         C188   1.434       .  S
O84          C90   1.264       .  A
O84         Cd87   2.474       .  S
C85          O93   1.264       .  A
C85         C270   1.434       .  S
C86          O91   1.264       .  A
C86          O89   1.263       .  A
C86         C189   1.436       .  S
Cd87         O94   2.465       .  S
Cd87         O93   2.499       .  S
Cd87         O92   2.458       .  S
Cd87         O88   2.472       .  S
Cd87         O91   2.474       .  S
Cd87         O89   2.465       .  S
C90          O94   1.263       .  A
C90         C202   1.436       .  S
O95          C98   1.264       .  A
O95        Cd100   2.472       .  S
C96         O105   1.264       .  A
C96         O101   1.261       .  A
C96         C343   1.434       .  S
O97         C103   1.264       .  A
O97        Cd100   2.472       .  S
C98         O106   1.263       .  A
C98         C185   1.434       .  S
C99         O104   1.264       .  A
C99         O102   1.263       .  A
C99         C183   1.436       .  S
Cd100       O107   2.467       .  S
Cd100       O106   2.458       .  S
Cd100       O105   2.499       .  S
Cd100       O101   2.439       .  S
Cd100       O104   2.475       .  S
Cd100       O102   2.465       .  S
C103        O107   1.263       .  A
C103        C194   1.436       .  S
O108        C111   1.264       .  A
O108       Cd113   2.471       .  S
C109        O118   1.264       .  A
C109        O114   1.261       .  A
C109        C256   1.434       .  S
O110        C116   1.264       .  A
O110       Cd113   2.474       .  S
C111        O119   1.263       .  A
C111        C186   1.434       .  S
C112        O117   1.263       .  A
C112        O115   1.263       .  A
C112        C192   1.436       .  S
Cd113       O120   2.465       .  S
Cd113       O119   2.459       .  S
Cd113       O118   2.500       .  S
Cd113       O114   2.437       .  S
Cd113       O117   2.473       .  S
Cd113       O115   2.467       .  S
C116        O120   1.263       .  A
C116        C181   1.436       .  S
O121        C124   1.264       .  A
O121       Cd126   2.471       .  S
C122        O131   1.264       .  A
C122        O127   1.261       .  A
C122        C299   1.434       .  S
O123        C129   1.264       .  A
O123       Cd126   2.474       .  S
C124        O132   1.263       .  A
C124        C179   1.434       .  S
C125        O130   1.264       .  A
C125        O128   1.263       .  A
C125        C178   1.436       .  S
Cd126       O133   2.466       .  S
Cd126       O132   2.458       .  S
Cd126       O131   2.499       .  S
Cd126       O127   2.437       .  S
Cd126       O130   2.475       .  S
Cd126       O128   2.464       .  S
C129        O133   1.263       .  A
C129        C184   1.436       .  S
O134        C137   1.261       .  A
O134       Cd139   2.438       .  S
C135        O144   1.263       .  A
C135        O140   1.264       .  A
C135        C180   1.434       .  S
O136        C142   1.264       .  A
O136       Cd139   2.475       .  S
C137        O145   1.264       .  A
C137        C209   1.434       .  S
C138        O143   1.264       .  A
C138        O141   1.263       .  A
C138        C175   1.436       .  S
Cd139       O146   2.465       .  S
Cd139       O145   2.499       .  S
Cd139       O144   2.458       .  S
Cd139       O140   2.471       .  S
Cd139       O143   2.474       .  S
Cd139       O141   2.466       .  S
C142        O146   1.263       .  A
C142        C182   1.436       .  S
O147        C150   1.261       .  A
O147       Cd152   2.437       .  S
C148        O157   1.263       .  A
C148        O153   1.264       .  A
C148        C173   1.434       .  S
O149        C155   1.263       .  A
O149       Cd152   2.473       .  S
C150        O158   1.264       .  A
C150        C357   1.434       .  S
C151        O156   1.264       .  A
C151        O154   1.263       .  A
C151        C177   1.436       .  S
Cd152       O159   2.467       .  S
Cd152       O158   2.500       .  S
Cd152       O157   2.459       .  S
Cd152       O153   2.471       .  S
Cd152       O156   2.474       .  S
Cd152       O154   2.465       .  S
C155        O159   1.263       .  A
C155        C206   1.436       .  S
O160        C163   1.264       .  A
O160       Cd165   2.472       .  S
C161        O170   1.264       .  A
C161        O166   1.261       .  A
C161        C252   1.434       .  S
O162        C168   1.264       .  A
O162       Cd165   2.473       .  S
C163        O171   1.263       .  A
C163        C174   1.434       .  S
C164        O169   1.264       .  A
C164        O167   1.263       .  A
C164        C176   1.436       .  S
Cd165       O172   2.467       .  S
Cd165       O171   2.458       .  S
Cd165       O170   2.499       .  S
Cd165       O166   2.439       .  S
Cd165       O169   2.475       .  S
Cd165       O167   2.465       .  S
C168        O172   1.263       .  A
C168        C199   1.436       .  S
C173        C174   1.205       .  T
C175        C176   1.206   1_565  T
C177        C178   1.206   1_545  T
C179        C180   1.205       .  T
C181        C182   1.206   1_655  T
C183        C184   1.206   1_655  T
C185        C186   1.205       .  T
C187        C188   1.205       .  T
C189        C190   1.206   1_545  T
C191        C192   1.206       .  T
C193        C194   1.206       .  T
C195        C196   1.206   1_545  T
C197        C198   1.205       .  T
C199        C200   1.206       .  T
C201        C202   1.206   1_455  T
C203        C204   1.206   1_455  T
C205        C206   1.206       .  T
C207        C208   1.205       .  T
C209        C210   1.205       .  T
C211        C212   1.215       .  T
C213        C214   1.205       .  T
C215        C216   1.215       .  T
C217        C218   1.419       .  A
C217        C222   1.403       .  A
C217        H223   1.083       .  S
C218        C219   1.404       .  A
C219        C220   1.398       .  A
C219        H224   1.074       .  S
C220        C221   1.404       .  A
C220        H225   1.074       .  S
C221        C222   1.419       .  A
C222        H226   1.083       .  S
C227        C228   1.205       .  T
C229        C230   1.215       .  T
C231        C232   1.404       .  A
C231        C236   1.398       .  A
C231        H237   1.074       .  S
C232        C233   1.419       .  A
C233        C234   1.403       .  A
C233        H238   1.083       .  S
C234        C235   1.419       .  A
C234        H239   1.083       .  S
C235        C236   1.404       .  A
C236        H240   1.074       .  S
C241        C242   1.404       .  A
C241        C246   1.398       .  A
C241        H247   1.074       .  S
C242        C243   1.419       .  A
C243        C244   1.403       .  A
C243        H248   1.083       .  S
C244        C245   1.419       .  A
C244        H249   1.083       .  S
C245        C246   1.404       .  A
C246        H250   1.074       .  S
C251        C252   1.206       .  T
C253        C254   1.215       .  T
C255        C256   1.205       .  T
C257        C258   1.215       .  T
C259        C260   1.419       .  A
C259        C264   1.403       .  A
C259        H265   1.083       .  S
C260        C261   1.404       .  A
C261        C262   1.398       .  A
C261        H266   1.074       .  S
C262        C263   1.404       .  A
C262        H267   1.074       .  S
C263        C264   1.419       .  A
C264        H268   1.083       .  S
C269        C270   1.205       .  T
C271        C272   1.215       .  T
C273        C274   1.419       .  A
C273        C278   1.403       .  A
C273        H279   1.083       .  S
C274        C275   1.404       .  A
C275        C276   1.398       .  A
C275        H280   1.074       .  S
C276        C277   1.404       .  A
C276        H281   1.074       .  S
C277        C278   1.419       .  A
C278        H282   1.083       .  S
C283        C284   1.404       .  A
C283        C288   1.398       .  A
C283        H289   1.074       .  S
C284        C285   1.419       .  A
C285        C286   1.403       .  A
C285        H290   1.083       .  S
C286        C287   1.419       .  A
C286        H291   1.083       .  S
C287        C288   1.404       .  A
C288        H292   1.074       .  S
C293        C294   1.207       .  T
C295        C296   1.205       .  T
C297        C298   1.215       .  T
C299        C300   1.205       .  T
C301        C302   1.215       .  T
C303        C304   1.404       .  A
C303        C308   1.398       .  A
C303        H309   1.074       .  S
C304        C305   1.419       .  A
C305        C306   1.403       .  A
C305        H310   1.083       .  S
C306        C307   1.419       .  A
C306        H311   1.083       .  S
C307        C308   1.404       .  A
C308        H312   1.074       .  S
C313        C314   1.205       .  T
C315        C316   1.215       .  T
C317        C318   1.404       .  A
C317        C322   1.398       .  A
C317        H323   1.074       .  S
C318        C319   1.419       .  A
C319        C320   1.403       .  A
C319        H324   1.083       .  S
C320        C321   1.419       .  A
C320        H325   1.083       .  S
C321        C322   1.404       .  A
C322        H326   1.074       .  S
C327        C328   1.404       .  A
C327        C332   1.398       .  A
C327        H333   1.074       .  S
C328        C329   1.419       .  A
C329        C330   1.403       .  A
C329        H334   1.083       .  S
C330        C331   1.419       .  A
C330        H335   1.083       .  S
C331        C332   1.404       .  A
C332        H336   1.074       .  S
C337        C338   1.207       .  T
C339        C340   1.205       .  T
C341        C342   1.215       .  T
C343        C344   1.206       .  T
C345        C346   1.215       .  T
C347        C348   1.419       .  A
C347        C352   1.403       .  A
C347        H353   1.083       .  S
C348        C349   1.404       .  A
C349        C350   1.398       .  A
C349        H354   1.074       .  S
C350        C351   1.404       .  A
C350        H355   1.074       .  S
C351        C352   1.419       .  A
C352        H356   1.083       .  S
C357        C358   1.205       .  T
C359        C360   1.215       .  T
C361        C362   1.404       .  A
C361        C366   1.398       .  A
C361        H367   1.074       .  S
C362        C363   1.419       .  A
C363        C364   1.403       .  A
C363        H368   1.083       .  S
C364        C365   1.419       .  A
C364        H369   1.083       .  S
C365        C366   1.404       .  A
C366        H370   1.074       .  S
C371        C372   1.404       .  A
C371        C376   1.398       .  A
C371        H377   1.074       .  S
C372        C373   1.419       .  A
C373        C374   1.403       .  A
C373        H378   1.083       .  S
C374        C375   1.419       .  A
C374        H379   1.083       .  S
C375        C376   1.404       .  A
C376        H380   1.074       .  S
