geometry optimzed in LAMMPS
_audit_creation_date              2020-11-30 
_audit_creation_method            'lammps2cif' 
_symmetry_space_group_name_H-M    'P1' 
_symmetry_Int_Tables_number       1 
_symmetry_cell_setting            triclinic 
loop_ 
_symmetry_equiv_pos_as_xyz 
  x,y,z 
_cell_length_a                    34.7187771 
_cell_length_b                    35.09491985687519 
_cell_length_c                    29.663847562045973 
_cell_angle_alpha                 90.02623636712747 
_cell_angle_beta                  89.90801720186032 
_cell_angle_gamma                 121.04284778726603 
loop_ 
_atom_site_label 
_atom_site_type_symbol 
_atom_site_fract_x 
_atom_site_fract_y 
_atom_site_fract_z 
_atom_site_charge 
C1          C  0.67081716  0.33532390  0.45857692     0.45900
H2          H  0.67134980  0.33566203  0.42114450    -0.03100
C3          C  0.66875943  0.33411964  0.54655503     0.46000
H4          H  0.66789763  0.33351680  0.58399745    -0.03100
C5          C  0.67845194  0.37893297  0.48007380    -0.16800
C6          C  0.62622003  0.29805574  0.47794268    -0.16600
C7          C  0.70589795  0.32663182  0.47991747    -0.16900
C8          C  0.67694994  0.37808303  0.52639962    -0.16900
C9          C  0.62482337  0.29774955  0.52421649    -0.16500
C10         C  0.70622204  0.32798811  0.52649362    -0.16800
C11         C  0.33829898  0.67148426  0.45842582     0.45900
H12         H  0.33892391  0.67113104  0.42098450    -0.03100
C13         C  0.33725125  0.67337004  0.54620810     0.46000
H14         H  0.33844279  0.67470155  0.58355449    -0.03100
C15         C  0.29759884  0.63003271  0.47933834    -0.16800
C16         C  0.38058455  0.67558835  0.48042496    -0.16600
C17         C  0.33462755  0.71002868  0.47723191    -0.16900
C18         C  0.29752069  0.62991465  0.52624391    -0.16900
C19         C  0.37954038  0.67597123  0.52666433    -0.16500
C20         C  0.33402612  0.71150653  0.52340395    -0.16800
C21         C  0.70033401  0.69678855  0.27756618     0.03600
C22         C  0.70399106  0.65955328  0.28718821    -0.12600
C23         C  0.67065325  0.62415085  0.31266100     0.01100
C24         C  0.63373296  0.62614327  0.32842731    -0.11100
C25         C  0.63075757  0.66394376  0.32086663     0.03600
C26         C  0.66350496  0.69870581  0.29427724    -0.10500
H27         H  0.73297892  0.65844384  0.27546046     0.09200
H28         H  0.60849934  0.59921849  0.34895482     0.06700
H29         H  0.66127582  0.72792983  0.28798187     0.06500
C30         C  0.71764764  0.71554679  0.70641423     0.03600
C31         C  0.67945573  0.71690099  0.69334177    -0.12600
C32         C  0.64714789  0.68393381  0.66507658     0.01100
C33         C  0.65205382  0.64848689  0.65145375    -0.11100
C34         C  0.68985174  0.64633074  0.66418170     0.03600
C35         C  0.72299224  0.68054371  0.69115127    -0.10500
H36         H  0.67527677  0.74395792  0.70454356     0.09200
H37         H  0.62633829  0.62264105  0.63041776     0.06700
H38         H  0.75272655  0.67979955  0.70062660     0.06500
C39         C  0.28234208  0.99939538  0.70668997     0.03600
C40         C  0.31657438  0.03913822  0.68756317    -0.12600
C41         C  0.34698275  0.03861190  0.65664655     0.01100
C42         C  0.34263060  0.99775754  0.64513776    -0.11100
C43         C  0.30743261  0.95776908  0.66264557     0.03600
C44         C  0.27760336  0.95865571  0.69388261    -0.10500
H45         H  0.31980052  0.07045353  0.69719595     0.09200
H46         H  0.36643140  0.99691756  0.62206970     0.06700
H47         H  0.25062017  0.92782639  0.70789006     0.06500
C48         C  0.29038368  0.99849140  0.29084945     0.03600
C49         C  0.33001004  0.03765419  0.30327766    -0.12600
C50         C  0.36099930  0.03560298  0.33184000     0.01100
C51         C  0.35256049  0.99429715  0.34724038    -0.11100
C52         C  0.31303219  0.95493094  0.33497081     0.03600
C53         C  0.28155813  0.95734079  0.30744543    -0.10500
H54         H  0.33665308  0.06952416  0.29082523     0.09200
H55         H  0.37688117  0.99285956  0.36895140     0.06700
H56         H  0.25022717  0.92743343  0.29891485     0.06500
C57         C  0.00295531  0.29564342  0.28471868     0.03600
C58         C  0.96210992  0.28809341  0.30233846    -0.12600
C59         C  0.96061664  0.32096325  0.32786781     0.01100
C60         C  0.00098039  0.36078167  0.33721346    -0.11100
C61         C  0.04224571  0.36798889  0.32122140     0.03600
C62         C  0.04310109  0.33523270  0.29486592    -0.10500
H63         H  0.93183045  0.25626694  0.29669732     0.09200
H64         H  0.00046465  0.38614237  0.35763187     0.06700
H65         H  0.07481163  0.34059434  0.28215643     0.06500
C66         C  0.99944368  0.28909176  0.71798090     0.03600
C67         C  0.95786545  0.28100706  0.70216653    -0.12600
C68         C  0.95614295  0.31018670  0.67130799     0.01100
C69         C  0.99619732  0.34655484  0.65501960    -0.11100
C70         C  0.03814152  0.35757656  0.67333199     0.03600
C71         C  0.03926163  0.32787944  0.70465526    -0.10500
H72         H  0.92696929  0.25247032  0.71433571     0.09200
H73         H  0.99418702  0.36729786  0.62925993     0.06700
H74         H  0.07075478  0.33490362  0.71942267     0.06500
O75         O  0.05828859  0.97406124  0.03791572    -0.84900
O76         O  0.96838298  0.93201336  0.06117955    -0.81900
C77         C  0.92952530  0.92596434  0.06619691     0.98600
O78         O  0.91585399  0.94575960  0.04114830    -0.82000
O79         O  0.96559928  0.03385950  0.06548674    -0.84600
C80         C  0.99986491  0.07203896  0.07098369     1.03100
O81         O  0.03200493  0.08672305  0.04321166    -0.77400
O82         O  0.07203093  0.03868619  0.06261928    -0.77600
C83         C  0.07855584  0.00660791  0.06469302     1.03000
O84         O  0.03334672  0.96820824  0.94467978    -0.84900
O85         O  0.94398215  0.91921682  0.96763604    -0.82000
C86         C  0.92609963  0.93375658  0.94090626     0.98600
O87         O  0.93167154  0.97180475  0.94742319    -0.82000
O88         O  0.97362576  0.05996284  0.97220887    -0.84600
C89         C  0.00706122  0.08017727  0.94602244     1.03100
O90         O  0.03981354  0.07426759  0.94906513    -0.77400
O91         O  0.08708593  0.03312801  0.96827281    -0.77600
C92         C  0.07230155  0.00173732  0.94002712     1.03000
Cr93       Cr  0.00106506  0.95234275  0.00309766     1.93700
Cr94       Cr  0.95059715  0.00282930  0.00645732     1.93200
Cr95       Cr  0.05367353  0.05418835  0.00577072     1.39100
O96         O  0.00175121  0.00311822  0.00517121    -1.22600
C97         C  0.01180692  0.19611175  0.76787539    -0.22000
C98         C  0.00195002  0.19822115  0.81332238     0.10000
C99         C  0.99123895  0.23014766  0.82725605     0.10400
C100        C  0.99080081  0.25945535  0.79535682    -0.16900
C101        C  0.00098782  0.25762211  0.74995239    -0.27400
C102        C  0.01139810  0.22540231  0.73590671     0.18700
C103        C  0.00348590  0.16708244  0.84601702     0.12700
C104        C  0.97991754  0.23298294  0.87570560    -0.11700
H105        H  0.98252877  0.28399974  0.80582626     0.12900
C106        C  0.02167483  0.22065025  0.68755502    -0.22500
H107        H  0.01985138  0.17142479  0.75730161     0.08600
C108        C  0.96669547  0.12346175  0.85190948     0.04900
C109        C  0.96891920  0.09613313  0.88506165    -0.19800
C110        C  0.00734865  0.11107582  0.91194499    -0.12100
C111        C  0.04418807  0.15504255  0.90611746     0.13600
C112        C  0.04185648  0.18222813  0.87284307    -0.22500
C113        C  0.92499750  0.10595143  0.82352883    -0.05600
H114        H  0.94048719  0.06282314  0.89000172     0.15200
C115        C  0.08542574  0.17547508  0.93563522    -0.15700
H116        H  0.06978817  0.21601173  0.86854062     0.09500
H117        H  0.99696807  0.18667973  0.67539083     0.07300
H118        H  0.05593401  0.22570550  0.68529366     0.08500
H119        H  0.02020298  0.24479915  0.66464549     0.07600
H120        H  0.00892216  0.24057505  0.89759493     0.02500
H121        H  0.95028799  0.20080294  0.88625870     0.02900
H122        H  0.97183309  0.25946394  0.88076320     0.06400
H123        H  0.89928121  0.07120810  0.83268732     0.05400
H124        H  0.93368491  0.10642470  0.78742102    -0.00300
H125        H  0.91004083  0.12702285  0.82832359     0.01100
H126        H  0.11545912  0.18417721  0.91478700     0.04800
H127        H  0.08348281  0.15361762  0.96349599     0.06700
H128        H  0.09002291  0.20630585  0.95130251     0.07600
C129        C  0.98897625  0.22342106  0.18383623    -0.22000
C130        C  0.00166327  0.19467392  0.20212611     0.10000
C131        C  0.01589276  0.19985677  0.24745947     0.10400
C132        C  0.01680576  0.23367214  0.27362705    -0.16900
C133        C  0.00332772  0.26184070  0.25548024    -0.27400
C134        C  0.98925678  0.25674869  0.21012482     0.18700
C135        C  0.00067347  0.16020422  0.17249853     0.12700
C136        C  0.02904409  0.16913439  0.26844955    -0.11700
H137        H  0.02738352  0.23777350  0.30854611     0.12900
C138        C  0.97491532  0.28668296  0.18939930    -0.22500
H139        H  0.97866046  0.21957827  0.14883726     0.08600
C140        C  0.95981362  0.12315070  0.15790831     0.04900
C141        C  0.96064074  0.09403582  0.12600614    -0.19800
C142        C  0.00141954  0.10115239  0.10822786    -0.12100
C143        C  0.04252259  0.13692063  0.12527251     0.13600
C144        C  0.04143716  0.16614801  0.15680983    -0.22500
C145        C  0.91536959  0.11434625  0.17600813    -0.05600
H146        H  0.92912890  0.06635762  0.11389694     0.15200
C147        C  0.08776639  0.14445669  0.11128440    -0.15700
H148        H  0.07263324  0.19449320  0.16864356     0.09500
H149        H  0.96581761  0.27867822  0.15331204     0.07300
H150        H  0.00277374  0.32185597  0.19169801     0.08500
H151        H  0.94509021  0.28278329  0.20745653     0.07600
H152        H  0.05864044  0.17215664  0.25069201     0.02500
H153        H  0.00054931  0.13425748  0.26612160     0.02900
H154        H  0.03799036  0.17705178  0.30457299     0.06400
H155        H  0.88677561  0.08315850  0.16211446     0.05400
H156        H  0.91021744  0.14205721  0.16690886    -0.00300
H157        H  0.91484658  0.11114748  0.21327642     0.01100
H158        H  0.09450129  0.15442116  0.07532403     0.04800
H159        H  0.08873750  0.11367980  0.11688221     0.06700
H160        H  0.11554009  0.17145708  0.13115502     0.07600
C161        C  0.17905761  0.04293471  0.14251846    -0.22000
C162        C  0.16759777  0.00239419  0.16277959     0.10000
C163        C  0.12726617  0.96344279  0.15060700     0.10400
C164        C  0.09891578  0.96608998  0.11871083    -0.16900
C165        C  0.11028099  0.00667578  0.09810086    -0.27400
C166        C  0.15168548  0.04551497  0.10940268     0.18700
C167        C  0.19929992  0.00135687  0.19539490     0.12700
C168        C  0.11462525  0.91902036  0.17061978    -0.11700
H169        H  0.06761755  0.93621881  0.10980163     0.12900
C170        C  0.16989995  0.08963480  0.08577578    -0.22500
H171        H  0.21055240  0.07259192  0.15148640     0.08600
C172        C  0.23931235  0.00390847  0.18086126     0.04900
C173        C  0.26868914  0.00350953  0.21298919    -0.19800
C174        C  0.25869953  0.00021328  0.25913432    -0.12100
C175        C  0.21846708  0.99725943  0.27370436     0.13600
C176        C  0.18930018  0.99805642  0.24155486    -0.22500
C177        C  0.25053950  0.00615280  0.13148302    -0.05600
H178        H  0.29939730  0.00526815  0.20210623     0.15200
C179        C  0.20549417  0.99356521  0.32271558    -0.15700
H180        H  0.15854247  0.99613698  0.25253912     0.09500
H181        H  0.20434913  0.10108959  0.07319373     0.07300
H182        H  0.17163804  0.11465982  0.10991339     0.08500
H183        H  0.15014928  0.08837536  0.05604787     0.07600
H184        H  0.11076930  0.91974655  0.20769886     0.02500
H185        H  0.14126282  0.91136466  0.16306297     0.02900
H186        H  0.08241835  0.89176845  0.15669993     0.06400
H187        H  0.28251920  0.00678018  0.12601041     0.05400
H188        H  0.25419174  0.03674597  0.11632041    -0.00300
H189        H  0.22330424  0.97658948  0.11386196     0.01100
H190        H  0.20143988  0.02194798  0.33204195     0.04800
H191        H  0.23081450  0.99385938  0.34565040     0.06700
H192        H  0.17306495  0.96206932  0.32829712     0.07600
C193        C  0.22328088  0.99299664  0.81675739    -0.22000
C194        C  0.19075505  0.00244084  0.80201740     0.10000
C195        C  0.18902011  0.01185381  0.75606886     0.10400
C196        C  0.21957776  0.01089521  0.72569436    -0.16900
C197        C  0.25159831  0.00061661  0.74032435    -0.27400
C198        C  0.25382280  0.99201567  0.78653308     0.18700
C199        C  0.15874555  0.00189324  0.83547407     0.12700
C200        C  0.15447515  0.02208384  0.73905365    -0.11700
H201        H  0.21823949  0.01772704  0.69027154     0.12900
C202        C  0.28836490  0.98252060  0.80529337    -0.22500
H203        H  0.22482305  0.98633900  0.85220749     0.08600
C204        C  0.12314070  0.96158151  0.85276961     0.04900
C205        C  0.09503243  0.96264618  0.88613039    -0.19800
C206        C  0.10178132  0.00313113  0.90289392    -0.12100
C207        C  0.13676854  0.04362937  0.88426097     0.13600
C208        C  0.16486959  0.04234878  0.85093942    -0.22500
C209        C  0.11468903  0.91743134  0.83582550    -0.05600
H210        H  0.06818216  0.93157479  0.89985770     0.15200
C211        C  0.14427541  0.08831075  0.89823737    -0.15700
H212        H  0.19214688  0.07310904  0.83710011     0.09500
H213        H  0.27110686  0.94895390  0.82090273     0.07300
H214        H  0.30849598  0.00757363  0.83149813     0.08500
H215        H  0.31206978  0.98375400  0.77947994     0.07600
H216        H  0.15925810  0.05261082  0.75556245     0.02500
H217        H  0.12020145  0.99384689  0.74672196     0.02900
H218        H  0.15715389  0.02766203  0.70203819     0.06400
H219        H  0.08477908  0.88913765  0.85212716     0.05400
H220        H  0.14413742  0.91406943  0.84311420    -0.00300
H221        H  0.10882388  0.91509074  0.79887523     0.01100
H222        H  0.15521169  0.09526425  0.93393351     0.04800
H223        H  0.11282272  0.08885241  0.89368761     0.06700
H224        H  0.17087912  0.11575029  0.87767492     0.07600
C225        C  0.82595719  0.80894787  0.75889280    -0.22000
C226        C  0.81049824  0.81183471  0.80170041     0.10000
C227        C  0.76479094  0.78343164  0.81286810     0.10400
C228        C  0.73541562  0.75280579  0.78084426    -0.16900
C229        C  0.75068306  0.74961756  0.73792441    -0.27400
C230        C  0.79661736  0.77834870  0.72669076     0.18700
C231        C  0.84262990  0.84421507  0.83491321     0.12700
C232        C  0.74722024  0.78513275  0.85883937    -0.11700
H233        H  0.70034548  0.73071546  0.78953657     0.12900
C234        C  0.81568679  0.77863383  0.68092339    -0.22500
H235        H  0.86112991  0.83091418  0.75048099     0.08600
C236        C  0.86706887  0.83283644  0.86405852     0.04900
C237        C  0.89404055  0.86288729  0.89767546    -0.19800
C238        C  0.89778330  0.90464695  0.90291157    -0.12100
C239        C  0.87445684  0.91662596  0.87201326     0.13600
C240        C  0.84697266  0.88602871  0.83874145    -0.22500
C241        C  0.86426739  0.78867736  0.85992247    -0.05600
H242        H  0.91208788  0.85326753  0.92021697     0.15200
C243        C  0.87812345  0.96129531  0.87325919    -0.15700
H244        H  0.82825569  0.89449400  0.81577802     0.09500
H245        H  0.84151100  0.76915470  0.68437663     0.07300
H246        H  0.83172112  0.81260065  0.66635282     0.08500
H247        H  0.78995292  0.75574141  0.65660391     0.07600
H248        H  0.75250654  0.81872685  0.86485145     0.02500
H249        H  0.76525399  0.77783099  0.88511994     0.02900
H250        H  0.71072288  0.76044945  0.86218510     0.06400
H251        H  0.88544907  0.78489364  0.88543032     0.05400
H252        H  0.87600313  0.78575377  0.82596828    -0.00300
H253        H  0.82898873  0.76119527  0.86474366     0.01100
H254        H  0.91370225  0.98788149  0.86810370     0.04800
H255        H  0.86554964  0.96591656  0.90600409     0.06700
H256        H  0.85801099  0.96472125  0.84621718     0.07600
C257        C  0.85409355  0.81961094  0.13143822    -0.22000
C258        C  0.83582084  0.83475985  0.16396121     0.10000
C259        C  0.84958916  0.88023665  0.16534456     0.10400
C260        C  0.88077731  0.90945421  0.13332423    -0.16900
C261        C  0.89866541  0.89416223  0.10028926    -0.27400
C262        C  0.88492719  0.84853438  0.09922486     0.18700
C263        C  0.80033949  0.80157375  0.19425323     0.12700
C264        C  0.83083462  0.89763620  0.20010289    -0.11700
H265        H  0.89111142  0.94435196  0.13388702     0.12900
C266        C  0.90001010  0.82852176  0.06338743    -0.22500
H267        H  0.84301376  0.78453058  0.13027489     0.08600
C268        C  0.75543920  0.77528409  0.17945808     0.04900
C269        C  0.72340822  0.74189079  0.20777646    -0.19800
C270        C  0.73529715  0.73409014  0.25047427    -0.12100
C271        C  0.78002030  0.76146166  0.26590468     0.13600
C272        C  0.81207288  0.79470010  0.23738290    -0.22500
C273        C  0.74145571  0.78239494  0.13367503    -0.05600
H274        H  0.68904280  0.72116686  0.19625605     0.15200
C275        C  0.79492402  0.75712593  0.31235420    -0.15700
H276        H  0.84652587  0.81522954  0.24874028     0.09500
H277        H  0.87011364  0.80184786  0.04552175     0.07300
H278        H  0.91824913  0.81379159  0.07939172     0.08500
H279        H  0.92223436  0.85273776  0.03762765     0.07600
H280        H  0.83918301  0.89146698  0.23441284     0.02500
H281        H  0.79374148  0.88050928  0.19659424     0.02900
H282        H  0.84491310  0.93396135  0.19632140     0.06400
H283        H  0.70500204  0.75933509  0.12758887     0.05400
H284        H  0.76036683  0.77666924  0.10699919    -0.00300
H285        H  0.74854195  0.81699016  0.13101471     0.01100
H286        H  0.82138710  0.74844697  0.30947597     0.04800
H287        H  0.76720997  0.73151880  0.33331798     0.06700
H288        H  0.80900555  0.78933613  0.33038091     0.07600
C289        C  0.29959674  0.84036008  0.34085664    -0.22000
C290        C  0.30452189  0.83700807  0.38723165     0.10000
C291        C  0.30886687  0.87063956  0.41643091     0.10400
C292        C  0.30851398  0.90734531  0.39859155    -0.16900
C293        C  0.30529055  0.91183609  0.35194864    -0.27400
C294        C  0.30016040  0.87758861  0.32265828     0.18700
C295        C  0.31005616  0.80070902  0.40445645     0.12700
C296        C  0.31552953  0.86838826  0.46622161    -0.11700
H297        H  0.31263478  0.93363867  0.42096267     0.12900
C298        C  0.29801789  0.88115229  0.27219402    -0.22500
H299        H  0.29694026  0.81449743  0.31876621     0.08600
C300        C  0.27384018  0.76137629  0.42263996     0.04900
C301        C  0.28253371  0.73104478  0.44427565    -0.19800
C302        C  0.32652335  0.73934501  0.44780523    -0.12100
C303        C  0.36195176  0.77682060  0.42591071     0.13600
C304        C  0.35346615  0.80761461  0.40544481    -0.22500
C305        C  0.22641137  0.75192425  0.41978494    -0.05600
H306        H  0.25512464  0.70134471  0.45952390     0.15200
C307        C  0.40889343  0.78538209  0.42346019    -0.15700
H308        H  0.38102687  0.83756562  0.39056276     0.09500
H309        H  0.26683084  0.88040161  0.26250662     0.07300
H310        H  0.29772954  0.85303842  0.25465111     0.08500
H311        H  0.32775249  0.91250337  0.26010600     0.07600
H312        H  0.34697007  0.86821569  0.47239985     0.02500
H313        H  0.28673694  0.83736571  0.47999431     0.02900
H314        H  0.31794824  0.89719468  0.48440972     0.06400
H315        H  0.20208383  0.71950123  0.43551708     0.05400
H316        H  0.21694862  0.75088578  0.38387350    -0.00300
H317        H  0.22367668  0.77833988  0.43737259     0.01100
H318        H  0.42066233  0.79147406  0.38791388     0.04800
H319        H  0.41030696  0.75638745  0.43500979     0.06700
H320        H  0.43177668  0.81491469  0.44410741     0.07600
C321        C  0.28850585  0.86316949  0.58634189    -0.22000
C322        C  0.30299918  0.84049538  0.61370850     0.10000
C323        C  0.31481238  0.85402917  0.65899807     0.10400
C324        C  0.31374717  0.89121840  0.67504083    -0.16900
C325        C  0.30156252  0.91523247  0.64662582    -0.27400
C326        C  0.28771456  0.90036564  0.60202291     0.18700
C327        C  0.30963801  0.80579091  0.59273385     0.12700
C328        C  0.32847778  0.82929194  0.69030538    -0.11700
H329        H  0.32403549  0.90260532  0.70932577     0.12900
C330        C  0.27225777  0.92311251  0.56993762    -0.22500
H331        H  0.27845851  0.85227079  0.55212728     0.08600
C332        C  0.27348566  0.76499274  0.57690128     0.04900
C333        C  0.28249339  0.73502458  0.55463126    -0.19800
C334        C  0.32670782  0.74437837  0.54836944    -0.12100
C335        C  0.36270108  0.78598665  0.56300039     0.13600
C336        C  0.35373097  0.81577614  0.58533841    -0.22500
C337        C  0.22546380  0.75272562  0.58398473    -0.05600
H338        H  0.25476400  0.70405468  0.54193623     0.15200
C339        C  0.41095888  0.80107788  0.55403282    -0.15700
H340        H  0.38154520  0.84780164  0.59596591     0.09500
H341        H  0.23817081  0.89861527  0.55726136     0.07300
H342        H  0.29577418  0.93678583  0.54090757     0.08500
H343        H  0.27023818  0.95060615  0.58581868     0.07600
H344        H  0.35960948  0.83127267  0.67789210     0.02500
H345        H  0.30113333  0.79386484  0.69224029     0.02900
H346        H  0.33508509  0.84335096  0.72491598     0.06400
H347        H  0.20139743  0.71886417  0.57106294     0.05400
H348        H  0.21886541  0.77646898  0.56599105    -0.00300
H349        H  0.21895310  0.75340400  0.62054753     0.01100
H350        H  0.42707261  0.83280711  0.53487274     0.04800
H351        H  0.41397699  0.77670124  0.53369146     0.06700
H352        H  0.42900569  0.80621936  0.58641046     0.07600
C353        C  0.56531163  0.69359629  0.58803395    -0.22000
C354        C  0.52947963  0.68231970  0.61759911     0.10000
C355        C  0.53314861  0.67350522  0.66329946     0.10400
C356        C  0.57268684  0.67583734  0.67838109    -0.16900
C357        C  0.60829005  0.68638976  0.64860434    -0.27400
C358        C  0.60475199  0.69586143  0.60292101     0.18700
C359        C  0.48850400  0.67987104  0.59948482     0.12700
C360        C  0.49511734  0.66104757  0.69582632    -0.11700
H361        H  0.57544139  0.66832741  0.71325308     0.12900
C362        C  0.64193126  0.70872302  0.56905041    -0.22500
H363        H  0.56241021  0.70060664  0.55299808     0.08600
C364        C  0.48455460  0.71784286  0.59740722     0.04900
C365        C  0.44692584  0.71484575  0.57634305    -0.19800
C366        C  0.41423938  0.67535676  0.55562605    -0.12100
C367        C  0.41641067  0.63649446  0.56091219     0.13600
C368        C  0.45392903  0.63933539  0.58226066    -0.22500
C369        C  0.52066862  0.76177546  0.61624080    -0.05600
H370        H  0.44420368  0.74403098  0.57440999     0.15200
C371        C  0.37849130  0.59184204  0.54567601    -0.15700
H372        H  0.45659258  0.60999181  0.58516644     0.09500
H373        H  0.65190632  0.74165031  0.55433032     0.07300
H374        H  0.62977767  0.68366148  0.54158710     0.08500
H375        H  0.67244071  0.71127488  0.58389858     0.07600
H376        H  0.46457575  0.63019521  0.68419380     0.02500
H377        H  0.48775539  0.68824405  0.69782186     0.02900
H378        H  0.50338968  0.65504594  0.73025942     0.06400
H379        H  0.51238939  0.78816356  0.61161149     0.05400
H380        H  0.55303337  0.77253683  0.59883365    -0.00300
H381        H  0.52474063  0.75844517  0.65285902     0.01100
H382        H  0.38543451  0.56490640  0.55291776     0.04800
H383        H  0.37290350  0.59189043  0.50904783     0.06700
H384        H  0.34724695  0.58402532  0.56374760     0.07600
C385        C  0.54887600  0.66112724  0.40785183    -0.22000
C386        C  0.52044322  0.66850171  0.38072575     0.10000
C387        C  0.52972661  0.67714489  0.33431227     0.10400
C388        C  0.56615781  0.67573924  0.31555614    -0.16900
C389        C  0.59432861  0.66755897  0.34260956    -0.27400
C390        C  0.58644545  0.66181446  0.38975134     0.18700
C391        C  0.48355439  0.67064873  0.40301672     0.12700
C392        C  0.50193221  0.68884417  0.30497344    -0.11700
H393        H  0.57266225  0.68095410  0.27966035     0.12900
C394        C  0.61781682  0.65842643  0.42246128    -0.22500
H395        H  0.54248500  0.65625810  0.44382570     0.08600
C396        C  0.43954262  0.63355559  0.40544245     0.04900
C397        C  0.40675086  0.63692513  0.42987001    -0.19800
C398        C  0.41720303  0.67580602  0.45345674    -0.12100
C399        C  0.46209524  0.71262217  0.45162682     0.13600
C400        C  0.49426737  0.70959543  0.42598528    -0.22500
C401        C  0.42771420  0.58993990  0.38397486    -0.05600
H402        H  0.37333893  0.60814963  0.43247163     0.15200
C403        C  0.47818879  0.75570761  0.47596773    -0.15700
H404        H  0.52852264  0.73766733  0.42472834     0.09500
H405        H  0.60041890  0.62502484  0.43843408     0.07300
H406        H  0.62771132  0.68398053  0.44919748     0.08500
H407        H  0.64937325  0.66438900  0.40668990     0.07600
H408        H  0.50378895  0.71940665  0.31802873     0.02500
H409        H  0.46634348  0.66131366  0.30496446     0.02900
H410        H  0.51411671  0.69513113  0.26955846     0.06400
H411        H  0.39191046  0.56407385  0.38971680     0.05400
H412        H  0.44891419  0.57784776  0.39858265    -0.00300
H413        H  0.43355579  0.59419029  0.34708827     0.01100
H414        H  0.50520111  0.76162488  0.50002727     0.04800
H415        H  0.45105830  0.75568506  0.49475188     0.06700
H416        H  0.49189052  0.78356018  0.45138816     0.07600
C417        C  0.11852356  0.47456327  0.62766222    -0.22000
C418        C  0.15829945  0.47401445  0.62215792     0.10000
C419        C  0.16066465  0.43791188  0.63978347     0.10400
C420        C  0.12102752  0.39998902  0.65515822    -0.16900
C421        C  0.08029353  0.39959852  0.65924698    -0.27400
C422        C  0.08085592  0.43951813  0.64901563     0.18700
C423        C  0.19722318  0.51288037  0.60002869     0.12700
C424        C  0.20523525  0.44077041  0.64610249    -0.11700
H425        H  0.12238004  0.37092930  0.66461580     0.12900
C426        C  0.04435065  0.44826987  0.66315199    -0.22500
H427        H  0.11758518  0.50368364  0.61716993     0.08600
C428        C  0.21445606  0.50925263  0.55825846     0.04900
C429        C  0.25055814  0.54742220  0.53855304    -0.19800
C430        C  0.26451801  0.59050099  0.55460296    -0.12100
C431        C  0.24492704  0.59387984  0.59561042     0.13600
C432        C  0.21371864  0.55511055  0.61869237    -0.22500
C433        C  0.19165194  0.46658122  0.53159313    -0.05600
H434        H  0.26576454  0.54355213  0.50838443     0.15200
C435        C  0.25228374  0.63656513  0.61524762    -0.15700
H436        H  0.19940796  0.55799463  0.65013649     0.09500
H437        H  0.02599728  0.44938348  0.63304576     0.07300
H438        H  0.05964007  0.48085199  0.68068582     0.08500
H439        H  0.02052412  0.42345250  0.68756067     0.07600
H440        H  0.22664072  0.46904210  0.66885144     0.02500
H441        H  0.22348383  0.44619731  0.61397303     0.02900
H442        H  0.20092658  0.41004166  0.66170269     0.06400
H443        H  0.20981076  0.47025617  0.49975034     0.05400
H444        H  0.15687246  0.45786458  0.52322164    -0.00300
H445        H  0.19001456  0.43853881  0.55014636     0.01100
H446        H  0.21937012  0.63411011  0.62041030     0.04800
H447        H  0.27156753  0.66495898  0.59313848     0.06700
H448        H  0.26970840  0.64305220  0.64818738     0.07600
C449        C  0.18254793  0.54259537  0.43216553    -0.22000
C450        C  0.19521182  0.52351262  0.39806346     0.10000
C451        C  0.24110385  0.54321614  0.38688647     0.10400
C452        C  0.27341341  0.57860800  0.41316840    -0.16900
C453        C  0.26112796  0.59565372  0.44974763    -0.27400
C454        C  0.21474866  0.57935463  0.45704473     0.18700
C455        C  0.15947263  0.48364718  0.37415133     0.12700
C456        C  0.25598065  0.52739676  0.34693335    -0.11700
H457        H  0.30844010  0.59270908  0.40508350     0.12900
C458        C  0.19777440  0.60057765  0.48935955    -0.22500
H459        H  0.14712788  0.52892402  0.43914654     0.08600
C460        C  0.15189920  0.44046208  0.38188095     0.04900
C461        C  0.11449544  0.40362415  0.36228020    -0.19800
C462        C  0.08444876  0.40862390  0.33503070    -0.12100
C463        C  0.09315050  0.45187901  0.32549842     0.13600
C464        C  0.13023818  0.48875116  0.34561409    -0.22500
C465        C  0.18145663  0.43156417  0.41168953    -0.05600
H466        H  0.10780600  0.37048248  0.36970579     0.15200
C467        C  0.06429172  0.46035250  0.29406689    -0.15700
H468        H  0.13619765  0.52180396  0.33930354     0.09500
H469        H  0.17771970  0.57661925  0.51645891     0.07300
H470        H  0.17596756  0.60985968  0.47096076     0.08500
H471        H  0.22506672  0.63136314  0.50485992     0.07600
H472        H  0.24018245  0.53066408  0.31581729     0.02500
H473        H  0.24604436  0.49212259  0.35123765     0.02900
H474        H  0.29304429  0.54718390  0.34241401     0.06400
H475        H  0.19438225  0.41344583  0.39220602     0.05400
H476        H  0.16158377  0.41069827  0.44074898    -0.00300
H477        H  0.21083655  0.46231756  0.42471790     0.01100
H478        H  0.04850542  0.47611998  0.31296849     0.04800
H479        H  0.03739574  0.42967669  0.27780055     0.06700
H480        H  0.08556771  0.48316639  0.26672979     0.07600
C481        C  0.86087778  0.33260493  0.65988093    -0.22000
C482        C  0.83611310  0.30380070  0.62462552     0.10000
C483        C  0.84851167  0.27406698  0.60746700     0.10400
C484        C  0.88673450  0.27516262  0.62485428    -0.16900
C485        C  0.91273103  0.30550165  0.65869349    -0.27400
C486        C  0.89889816  0.33368878  0.67735668     0.18700
C487        C  0.80190559  0.31023235  0.60197323     0.12700
C488        C  0.82243432  0.24244498  0.56974341    -0.11700
H489        H  0.89740327  0.25354391  0.61082924     0.12900
C490        C  0.92383019  0.36581142  0.71516711    -0.22500
H491        H  0.85130693  0.35546922  0.67284568     0.08600
C492        C  0.75578939  0.28503035  0.61285212     0.04900
C493        C  0.72533300  0.29268908  0.58911659    -0.19800
C494        C  0.74013896  0.32532174  0.55525939    -0.12100
C495        C  0.78695567  0.35351771  0.54823330     0.13600
C496        C  0.81699523  0.34450655  0.57025055    -0.22500
C497        C  0.73883399  0.25048877  0.64959229    -0.05600
H498        H  0.68997090  0.27250604  0.59637057     0.15200
C499        C  0.80653743  0.39508967  0.52027894    -0.15700
H500        H  0.85273979  0.36532963  0.56367921     0.09500
H501        H  0.90050885  0.35880554  0.74385419     0.07300
H502        H  0.93680642  0.40036267  0.70332785     0.08500
H503        H  0.95247584  0.36344466  0.72801566     0.07600
H504        H  0.82188531  0.26121482  0.53999424     0.02500
H505        H  0.78734774  0.21913594  0.58061763     0.02900
H506        H  0.83747174  0.22249934  0.55937587     0.06400
H507        H  0.70183525  0.23395032  0.65388927     0.05400
H508        H  0.75497966  0.26648433  0.68204383    -0.00300
H509        H  0.74693569  0.22454909  0.64154128     0.01100
H510        H  0.83261074  0.42368353  0.54001394     0.04800
H511        H  0.78083709  0.40333808  0.51160691     0.06700
H512        H  0.82214102  0.39127454  0.48925973     0.07600
C513        C  0.77493631  0.27719929  0.43773340    -0.22000
C514        C  0.80162982  0.30882458  0.40508136     0.10000
C515        C  0.79162940  0.34142219  0.39217840     0.10400
C516        C  0.75747783  0.34366292  0.41482031    -0.16900
C517        C  0.73482216  0.31602189  0.45163638    -0.27400
C518        C  0.74072854  0.27963954  0.46034548     0.18700
C519        C  0.84097979  0.30852043  0.38622524     0.12700
C520        C  0.81806154  0.37508205  0.35592514    -0.11700
H521        H  0.74921439  0.36777908  0.40411661     0.12900
C522        C  0.71009999  0.24152958  0.49082157    -0.22500
H523        H  0.78100599  0.25060187  0.44576017     0.08600
C524        C  0.87977914  0.32218440  0.41248990     0.04900
C525        C  0.91707873  0.32326086  0.39301403    -0.19800
C526        C  0.91772263  0.31362261  0.34711322    -0.12100
C527        C  0.87907773  0.30106834  0.32044287     0.13600
C528        C  0.84076337  0.29744411  0.34079711    -0.22500
C529        C  0.88277762  0.33789908  0.46036827    -0.05600
H530        H  0.94665683  0.33325349  0.41344224     0.15200
C531        C  0.87867573  0.29443187  0.27016577    -0.15700
H532        H  0.81091338  0.28741649  0.32081317     0.09500
H533        H  0.72975641  0.23923962  0.51904971     0.07300
H534        H  0.69473461  0.21000431  0.47137579     0.08500
H535        H  0.68209430  0.24451148  0.50458038     0.07600
H536        H  0.81348450  0.35810034  0.32312012     0.02500
H537        H  0.85429827  0.39381655  0.36484059     0.02900
H538        H  0.80697032  0.39942440  0.35168161     0.06400
H539        H  0.91604297  0.34864693  0.47563868     0.05400
H540        H  0.85673117  0.31074700  0.48134746    -0.00300
H541        H  0.87762137  0.36659845  0.46111019     0.01100
H542        H  0.87940107  0.26397177  0.26236064     0.04800
H543        H  0.90798139  0.32377722  0.25439071     0.06700
H544        H  0.84778716  0.29041671  0.25441149     0.07600
C545        C  0.64822932  0.50932685  0.34233969    -0.22000
C546        C  0.68142540  0.52009184  0.37507887     0.10000
C547        C  0.71445166  0.56530304  0.38260115     0.10400
C548        C  0.71160764  0.59848072  0.35920028    -0.16900
C549        C  0.67670806  0.58770079  0.32862258    -0.27400
C550        C  0.64515582  0.54252505  0.31929761     0.18700
C551        C  0.67998795  0.48363415  0.40193610     0.12700
C552        C  0.75174334  0.57903844  0.41641437    -0.11700
H553        H  0.73559204  0.63319216  0.36632539     0.12900
C554        C  0.60771155  0.52822404  0.28562306    -0.22500
H555        H  0.62389959  0.47468018  0.33537117     0.08600
C556        C  0.64399643  0.45695079  0.43160271     0.04900
C557        C  0.64457509  0.42311029  0.45626987    -0.19800
C558        C  0.68073565  0.41597674  0.45308786    -0.12100
C559        C  0.71807689  0.44500530  0.42591068     0.13600
C560        C  0.71615527  0.47674164  0.39904548    -0.22500
C561        C  0.60552306  0.46470469  0.43830390    -0.05600
H562        H  0.61667837  0.40210771  0.47840485     0.15200
C563        C  0.76194742  0.44648688  0.42694749    -0.15700
H564        H  0.74396355  0.49733936  0.37665533     0.09500
H565        H  0.57479745  0.50914327  0.30313095     0.07300
H566        H  0.60999169  0.50658521  0.25975766     0.08500
H567        H  0.60903287  0.55662329  0.26779715     0.07900
H568        H  0.77506889  0.56826406  0.40505055     0.02500
H569        H  0.73758784  0.56397123  0.44964161     0.02900
H570        H  0.77185365  0.61570585  0.42077798     0.06400
H571        H  0.58201168  0.44273213  0.46492771     0.05400
H572        H  0.58602650  0.45775717  0.40669691    -0.00300
H573        H  0.61868432  0.49971412  0.44857489     0.01100
H574        H  0.77059042  0.44067563  0.39260660     0.04800
H575        H  0.76102548  0.42192278  0.45048865     0.06700
H576        H  0.78887623  0.47982281  0.43854168     0.07600
C577        C  0.65823566  0.45562293  0.60192014    -0.22000
C578        C  0.69709352  0.49641731  0.59279646     0.10000
C579        C  0.73136784  0.49763425  0.56614654     0.10400
C580        C  0.72463721  0.45797601  0.54707341    -0.16900
C581        C  0.68443113  0.41710400  0.55395127    -0.27400
C582        C  0.65143294  0.41596020  0.58322115     0.18700
C583        C  0.69946810  0.53723919  0.60994466     0.12700
C584        C  0.77491888  0.54062317  0.55793111    -0.11700
H585        H  0.75047789  0.45899663  0.52568778     0.12900
C586        C  0.60784252  0.37455356  0.59473863    -0.22500
H587        H  0.63226563  0.45491218  0.62294088     0.08600
C588        C  0.68699990  0.56189921  0.58251262     0.04900
C589        C  0.68676662  0.59861007  0.60077297    -0.19800
C590        C  0.69491167  0.60921322  0.64689763    -0.12100
C591        C  0.70505000  0.58272691  0.67494527     0.13600
C592        C  0.70875178  0.54814594  0.65565379    -0.22500
C593        C  0.67126468  0.54785991  0.53477083    -0.05600
H594        H  0.67845664  0.61822594  0.57912585     0.15200
C595        C  0.70893227  0.58735752  0.72553357    -0.15700
H596        H  0.71639054  0.52780934  0.67698956     0.09500
H597        H  0.57935968  0.37773562  0.58271745     0.07300
H598        H  0.60513849  0.36976600  0.63185690     0.08500
H599        H  0.60486152  0.34474148  0.57976320     0.07600
H600        H  0.79167738  0.55494242  0.59064097     0.02500
H601        H  0.76861820  0.56484842  0.54056284     0.02900
H602        H  0.79825694  0.53554278  0.53665560     0.06400
H603        H  0.66257850  0.57071901  0.51794955     0.05400
H604        H  0.64088146  0.51398438  0.53479720    -0.00300
H605        H  0.69778632  0.54724826  0.51476522     0.01100
H606        H  0.68565718  0.55463999  0.74135384     0.04800
H607        H  0.69967364  0.61088746  0.73917824     0.06700
H608        H  0.74383167  0.59823352  0.73589936     0.07600
C609        C  0.43693031  0.12362367  0.57799906    -0.22000
C610        C  0.46496351  0.15666176  0.60866733     0.10000
C611        C  0.45175410  0.15338137  0.65413726     0.10400
C612        C  0.41243444  0.11492208  0.66872050    -0.16900
C613        C  0.38502634  0.08072542  0.63836169    -0.27400
C614        C  0.39636611  0.08644911  0.59189006     0.18700
C615        C  0.50710252  0.19502128  0.59147013     0.12700
C616        C  0.47857782  0.19068734  0.68691698    -0.11700
H617        H  0.40348946  0.11122209  0.70413552     0.12900
C618        C  0.36596844  0.05522290  0.55574422    -0.22500
H619        H  0.44646016  0.12730350  0.54272532     0.08600
C620        C  0.54865945  0.19717556  0.59550919     0.04900
C621        C  0.58705799  0.23267060  0.57546063    -0.19800
C622        C  0.58447608  0.26499031  0.55013685    -0.12100
C623        C  0.54245328  0.26228254  0.54565195     0.13600
C624        C  0.50447089  0.22754062  0.56678659    -0.22500
C625        C  0.55202230  0.16070253  0.61849804    -0.05600
H626        H  0.61839994  0.23331926  0.57677558     0.15200
C627        C  0.53603266  0.29490410  0.51849240    -0.15700
H628        H  0.47221097  0.22511468  0.56303578     0.09500
H629        H  0.38218907  0.03855478  0.53941162     0.07300
H630        H  0.36002942  0.07444559  0.52980218     0.08500
H631        H  0.33254428  0.02967202  0.56873020     0.07600
H632        H  0.48035792  0.22146452  0.67471329     0.02500
H633        H  0.51317811  0.19698870  0.69015730     0.02900
H634        H  0.46299002  0.18294177  0.72096736     0.06400
H635        H  0.58687525  0.16714318  0.61758744     0.05400
H636        H  0.52977784  0.12856159  0.60124924    -0.00300
H637        H  0.54169278  0.15779174  0.65429441     0.01100
H638        H  0.51265259  0.27723221  0.49015136     0.04800
H639        H  0.56780821  0.32249664  0.50449343     0.06700
H640        H  0.52117405  0.30980108  0.54023095     0.07600
C641        C  0.53228216  0.23119578  0.39277590    -0.22000
C642        C  0.51895850  0.18774547  0.40576202     0.10000
C643        C  0.54268191  0.18070040  0.43999326     0.10400
C644        C  0.57923847  0.21746972  0.46059562    -0.16900
C645        C  0.59099451  0.26122432  0.44987206    -0.27400
C646        C  0.56749743  0.26809765  0.41485199     0.18700
C647        C  0.47822188  0.15018273  0.38520705     0.12700
C648        C  0.52833992  0.13448867  0.45597238    -0.11700
H649        H  0.59784305  0.21199456  0.48646722     0.12900
C650        C  0.57660481  0.31327136  0.40123673    -0.22500
H651        H  0.51370033  0.23631074  0.36651949     0.08600
C652        C  0.43493041  0.13827270  0.40056508     0.04900
C653        C  0.39712747  0.10163807  0.38118343    -0.19800
C654        C  0.40177589  0.07650531  0.34719031    -0.12100
C655        C  0.44516633  0.08873610  0.33148155     0.13600
C656        C  0.48293025  0.12555934  0.35072831    -0.22500
C657        C  0.42880764  0.16356012  0.43819647    -0.05600
H658        H  0.36380423  0.09175076  0.39343573     0.15200
C659        C  0.45276393  0.06379828  0.29454902    -0.15700
H660        H  0.51629826  0.13491949  0.33906387     0.09500
H661        H  0.54547836  0.31455396  0.40516671     0.07300
H662        H  0.58745767  0.31970487  0.36543006     0.08500
H663        H  0.60274423  0.34012919  0.42189973     0.07600
H664        H  0.53027762  0.11481310  0.42770620     0.02500
H665        H  0.49323196  0.11782764  0.46868964     0.02900
H666        H  0.55003642  0.13501276  0.48374620     0.06400
H667        H  0.39278023  0.14923085  0.44683568     0.05400
H668        H  0.44281500  0.19873101  0.42802710    -0.00300
H669        H  0.44653511  0.16252357  0.46885641     0.01100
H670        H  0.47152215  0.08694456  0.26642991     0.04800
H671        H  0.42105806  0.03604047  0.28054543     0.06700
H672        H  0.47290117  0.04993612  0.30784128     0.07600
loop_ 
_geom_bond_atom_site_label_1 
_geom_bond_atom_site_label_2 
_geom_bond_distance 
_geom_bond_site_symmetry_2 
_ccdc_geom_bond_type 
C1            H2   1.110       .  S
C1            C7   1.537       .  S
C1            C6   1.532       .  S
C1            C5   1.549       .  S
C3            H4   1.111       .  S
C3            C9   1.546       .  S
C3            C8   1.538       .  S
C3           C10   1.542       .  S
C5            C8   1.375       .  D
C5          C558   1.494       .  S
C6            C9   1.373       .  D
C6          C645   1.494       .  S
C7           C10   1.382       .  D
C7          C517   1.495       .  S
C8          C581   1.498       .  S
C9          C622   1.487       .  S
C10         C494   1.497       .  S
C11          H12   1.111       .  S
C11          C17   1.528       .  S
C11          C16   1.545       .  S
C11          C15   1.541       .  S
C13          H14   1.109       .  S
C13          C19   1.536       .  S
C13          C18   1.553       .  S
C13          C20   1.555       .  S
C15          C18   1.391       .  D
C15         C453   1.502       .  S
C16          C19   1.372       .  D
C16         C398   1.498       .  S
C17          C20   1.371       .  D
C17         C302   1.483       .  S
C18         C430   1.516       .  S
C19         C366   1.490       .  S
C20         C334   1.498       .  S
C21          C22   1.406       .  A
C21          C26   1.404       .  A
C21         C270   1.481       .  S
C22          C23   1.403       .  A
C22          H27   1.084       .  S
C23          C24   1.399       .  A
C23         C549   1.477       .  S
C24          C25   1.401       .  A
C24          H28   1.085       .  S
C25          C26   1.404       .  A
C25         C389   1.481       .  S
C26          H29   1.084       .  S
C30          C31   1.406       .  A
C30          C35   1.408       .  A
C30         C229   1.486       .  S
C31          C32   1.401       .  A
C31          H36   1.084       .  S
C32          C33   1.399       .  A
C32         C357   1.479       .  S
C33          C34   1.405       .  A
C33          H37   1.084       .  S
C34          C35   1.408       .  A
C34         C590   1.492       .  S
C35          H38   1.084       .  S
C39          C40   1.403   1_565  A
C39          C44   1.405       .  A
C39         C197   1.477   1_565  S
C40          C41   1.405       .  A
C40          H45   1.084       .  S
C41          C42   1.404   1_545  A
C41         C613   1.486       .  S
C42          C43   1.401       .  A
C42          H46   1.084       .  S
C43          C44   1.401       .  A
C43         C325   1.477       .  S
C44          H47   1.084       .  S
C48          C49   1.403   1_565  A
C48          C53   1.402       .  A
C48         C174   1.473   1_565  S
C49          C50   1.401       .  A
C49          H54   1.084       .  S
C50          C51   1.399   1_545  A
C50         C654   1.476       .  S
C51          C52   1.404       .  A
C51          H55   1.084       .  S
C52          C53   1.402       .  A
C52         C293   1.481       .  S
C53          H56   1.083       .  S
C57          C58   1.402   1_455  A
C57          C62   1.403       .  A
C57         C133   1.475       .  S
C58          C59   1.403       .  A
C58          H63   1.082       .  S
C59          C60   1.405   1_655  A
C59         C526   1.487       .  S
C60          C61   1.402       .  A
C60          H64   1.084       .  S
C61          C62   1.403       .  A
C61         C462   1.481       .  S
C62          H65   1.084       .  S
C66          C67   1.401       .  A
C66          C71   1.407   1_655  A
C66         C101   1.478   1_655  S
C67          C68   1.398       .  A
C67          H72   1.084       .  S
C68          C69   1.401       .  A
C68         C485   1.478       .  S
C69          C70   1.410   1_655  A
C69          H73   1.082       .  S
C70          C71   1.412       .  A
C70         C421   1.505       .  S
C71          H74   1.082       .  S
O75         Cr93   2.010       .  S
O75          C83   1.266   1_565  A
O76         Cr93   1.981   1_655  S
O76          C77   1.261       .  A
C77         C261   1.477       .  S
C77          O78   1.266       .  A
O78         Cr94   2.008   1_565  S
O79         Cr94   1.985       .  S
O79          C80   1.262       .  A
C80         C142   1.487   1_655  S
C80          O81   1.262   1_655  A
O81         Cr95   1.996       .  S
O82         Cr95   1.977       .  S
O82          C83   1.259       .  A
C83         C165   1.482       .  S
O84         Cr93   1.980   1_556  S
O84          C92   1.261   1_565  A
O85         Cr93   2.004   1_656  S
O85          C86   1.266       .  A
C86         C238   1.499       .  S
C86          O87   1.261       .  A
O87         Cr94   1.987   1_566  S
O88         Cr94   2.009   1_556  S
O88          C89   1.266   1_655  A
C89         C110   1.479       .  S
C89          O90   1.260       .  A
O90         Cr95   1.978   1_556  S
O91         Cr95   2.002   1_556  S
O91          C92   1.264       .  A
C92         C206   1.486       .  S
Cr93         O96   1.771   1_565  S
Cr94         O96   1.771   1_655  S
Cr95         O96   1.769       .  S
C97          C98   1.402       .  A
C97         C102   1.404       .  A
C97         H107   1.084       .  S
C98          C99   1.412   1_455  A
C98         C103   1.483       .  S
C99         C100   1.404       .  A
C99         C104   1.506       .  S
C100        C101   1.402   1_655  A
C100        H105   1.084       .  S
C101        C102   1.415       .  A
C102        C106   1.507       .  S
C103        C108   1.410   1_455  A
C103        C112   1.401       .  A
C104        H120   1.110   1_655  S
C104        H121   1.110       .  S
C104        H122   1.111       .  S
C106        H117   1.110   1_455  S
C106        H118   1.110       .  S
C106        H119   1.108       .  S
C108        C109   1.404       .  A
C108        C113   1.506       .  S
C109        C110   1.404   1_655  A
C109        H114   1.083       .  S
C110        C111   1.418       .  A
C111        C112   1.404       .  A
C111        C115   1.508       .  S
C112        H116   1.085       .  S
C113        H123   1.111       .  S
C113        H124   1.110       .  S
C113        H125   1.110       .  S
C115        H126   1.110       .  S
C115        H127   1.106       .  S
C115        H128   1.111       .  S
C129        C130   1.402   1_655  A
C129        C134   1.401       .  A
C129        H139   1.084       .  S
C130        C131   1.412       .  A
C130        C135   1.481       .  S
C131        C132   1.404       .  A
C131        C136   1.506       .  S
C132        C133   1.402       .  A
C132        H137   1.084       .  S
C133        C134   1.412   1_455  A
C134        C138   1.507       .  S
C135        C140   1.411   1_455  A
C135        C144   1.399       .  A
C136        H152   1.109       .  S
C136        H153   1.110       .  S
C136        H154   1.111       .  S
C138        H149   1.111       .  S
C138        H150   1.110   1_655  S
C138        H151   1.109       .  S
C140        C141   1.403       .  A
C140        C145   1.507       .  S
C141        C142   1.406   1_655  A
C141        H146   1.084       .  S
C142        C143   1.422       .  A
C143        C144   1.403       .  A
C143        C147   1.510       .  S
C144        H148   1.084       .  S
C145        H155   1.111       .  S
C145        H156   1.109       .  S
C145        H157   1.110       .  S
C147        H158   1.109       .  S
C147        H159   1.110       .  S
C147        H160   1.111       .  S
C161        C162   1.400       .  A
C161        C166   1.403       .  A
C161        H171   1.085       .  S
C162        C163   1.410   1_545  A
C162        C167   1.481       .  S
C163        C164   1.404       .  A
C163        C168   1.507       .  S
C164        C165   1.407   1_565  A
C164        H169   1.084       .  S
C165        C166   1.420       .  A
C166        C170   1.509       .  S
C167        C172   1.412       .  A
C167        C176   1.402   1_545  A
C168        H184   1.110       .  S
C168        H185   1.111       .  S
C168        H186   1.111       .  S
C170        H181   1.111       .  S
C170        H182   1.110       .  S
C170        H183   1.105       .  S
C172        C173   1.402       .  A
C172        C177   1.507       .  S
C173        C174   1.402       .  A
C173        H178   1.084       .  S
C174        C175   1.413   1_545  A
C175        C176   1.403       .  A
C175        C179   1.507       .  S
C176        H180   1.084       .  S
C177        H187   1.111       .  S
C177        H188   1.109       .  S
C177        H189   1.110   1_545  S
C179        H190   1.110   1_565  S
C179        H191   1.108       .  S
C179        H192   1.110       .  S
C193        C194   1.401   1_565  A
C193        C198   1.401       .  A
C193        H203   1.085       .  S
C194        C195   1.411       .  A
C194        C199   1.481       .  S
C195        C196   1.404       .  A
C195        C200   1.506       .  S
C196        C197   1.403       .  A
C196        H201   1.084       .  S
C197        C198   1.414   1_545  A
C198        C202   1.508       .  S
C199        C204   1.410   1_545  A
C199        C208   1.400       .  A
C200        H216   1.110       .  S
C200        H217   1.110   1_545  S
C200        H218   1.111       .  S
C202        H213   1.110       .  S
C202        H214   1.110   1_565  S
C202        H215   1.108       .  S
C204        C205   1.403       .  A
C204        C209   1.507       .  S
C205        C206   1.406   1_565  A
C205        H210   1.084       .  S
C206        C207   1.421       .  A
C207        C208   1.405       .  A
C207        C211   1.509       .  S
C208        H212   1.084       .  S
C209        H219   1.111       .  S
C209        H220   1.110       .  S
C209        H221   1.110       .  S
C211        H222   1.109       .  S
C211        H223   1.110       .  S
C211        H224   1.111       .  S
C225        C226   1.402       .  A
C225        C230   1.406       .  A
C225        H235   1.084       .  S
C226        C227   1.410       .  A
C226        C231   1.484       .  S
C227        C228   1.403       .  A
C227        C232   1.507       .  S
C228        C229   1.405       .  A
C228        H233   1.084       .  S
C229        C230   1.418       .  A
C230        C234   1.507       .  S
C231        C236   1.407       .  A
C231        C240   1.400       .  A
C232        H248   1.110       .  S
C232        H249   1.110       .  S
C232        H250   1.111       .  S
C234        H245   1.110       .  S
C234        H246   1.110       .  S
C234        H247   1.107       .  S
C236        C237   1.403       .  A
C236        C241   1.507       .  S
C237        C238   1.411       .  A
C237        H242   1.083       .  S
C238        C239   1.424       .  A
C239        C240   1.408       .  A
C239        C243   1.506       .  S
C240        H244   1.084       .  S
C241        H251   1.111       .  S
C241        H252   1.110       .  S
C241        H253   1.110       .  S
C243        H254   1.109       .  S
C243        H255   1.110       .  S
C243        H256   1.111       .  S
C257        C258   1.400       .  A
C257        C262   1.402       .  A
C257        H267   1.085       .  S
C258        C259   1.411       .  A
C258        C263   1.483       .  S
C259        C260   1.407       .  A
C259        C264   1.506       .  S
C260        C261   1.405       .  A
C260        H265   1.084       .  S
C261        C262   1.416       .  A
C262        C266   1.508       .  S
C263        C268   1.412       .  A
C263        C272   1.402       .  A
C264        H280   1.110       .  S
C264        H281   1.110       .  S
C264        H282   1.111       .  S
C266        H277   1.111       .  S
C266        H278   1.110       .  S
C266        H279   1.106       .  S
C268        C269   1.403       .  A
C268        C273   1.507       .  S
C269        C270   1.403       .  A
C269        H274   1.084       .  S
C270        C271   1.417       .  A
C271        C272   1.405       .  A
C271        C275   1.508       .  S
C272        H276   1.084       .  S
C273        H283   1.111       .  S
C273        H284   1.110       .  S
C273        H285   1.110       .  S
C275        H286   1.110       .  S
C275        H287   1.108       .  S
C275        H288   1.110       .  S
C289        C290   1.399       .  A
C289        C294   1.405       .  A
C289        H299   1.084       .  S
C290        C291   1.408       .  A
C290        C295   1.475       .  S
C291        C292   1.399       .  A
C291        C296   1.504       .  S
C292        C293   1.404       .  A
C292        H297   1.084       .  S
C293        C294   1.418       .  A
C294        C298   1.507       .  S
C295        C300   1.409       .  A
C295        C304   1.398       .  A
C296        H312   1.110       .  S
C296        H313   1.108       .  S
C296        H314   1.110       .  S
C298        H309   1.108       .  S
C298        H310   1.111       .  S
C298        H311   1.110       .  S
C300        C301   1.403       .  A
C300        C305   1.505       .  S
C301        C302   1.404       .  A
C301        H306   1.083       .  S
C302        C303   1.412       .  A
C303        C304   1.397       .  A
C303        C307   1.499       .  S
C304        H308   1.085       .  S
C305        H315   1.111       .  S
C305        H316   1.110       .  S
C305        H317   1.109       .  S
C307        H318   1.111       .  S
C307        H319   1.099       .  S
C307        H320   1.110       .  S
C321        C322   1.400       .  A
C321        C326   1.399       .  A
C321        H331   1.078       .  S
C322        C323   1.414       .  A
C322        C327   1.487       .  S
C323        C324   1.407       .  A
C323        C328   1.506       .  S
C324        C325   1.403       .  A
C324        H329   1.084       .  S
C325        C326   1.413       .  A
C326        C330   1.508       .  S
C327        C332   1.412       .  A
C327        C336   1.400       .  A
C328        H344   1.109       .  S
C328        H345   1.110       .  S
C328        H346   1.111       .  S
C330        H341   1.110       .  S
C330        H342   1.110       .  S
C330        H343   1.108       .  S
C332        C333   1.407       .  A
C332        C337   1.506       .  S
C333        C334   1.406       .  A
C333        H338   1.082       .  S
C334        C335   1.415       .  A
C335        C336   1.401       .  A
C335        C339   1.497       .  S
C336        H340   1.085       .  S
C337        H347   1.111       .  S
C337        H348   1.109       .  S
C337        H349   1.110       .  S
C339        H350   1.110       .  S
C339        H351   1.095       .  S
C339        H352   1.110       .  S
C353        C354   1.401       .  A
C353        C358   1.402       .  A
C353        H363   1.085       .  S
C354        C355   1.411       .  A
C354        C359   1.482       .  S
C355        C356   1.406       .  A
C355        C360   1.505       .  S
C356        C357   1.404       .  A
C356        H361   1.084       .  S
C357        C358   1.416       .  A
C358        C362   1.508       .  S
C359        C364   1.410       .  A
C359        C368   1.402       .  A
C360        H376   1.110       .  S
C360        H377   1.110       .  S
C360        H378   1.111       .  S
C362        H373   1.110       .  S
C362        H374   1.110       .  S
C362        H375   1.108       .  S
C364        C365   1.403       .  A
C364        C369   1.506       .  S
C365        C366   1.402       .  A
C365        H370   1.078       .  S
C366        C367   1.413       .  A
C367        C368   1.406       .  A
C367        C371   1.506       .  S
C368        H372   1.084       .  S
C369        H379   1.111       .  S
C369        H380   1.110       .  S
C369        H381   1.110       .  S
C371        H382   1.111       .  S
C371        H383   1.104       .  S
C371        H384   1.109       .  S
C385        C386   1.398       .  A
C385        C390   1.398       .  A
C385        H395   1.085       .  S
C386        C387   1.411       .  A
C386        C391   1.476       .  S
C387        C388   1.405       .  A
C387        C392   1.506       .  S
C388        C389   1.405       .  A
C388        H393   1.084       .  S
C389        C390   1.419       .  A
C390        C394   1.510       .  S
C391        C396   1.408       .  A
C391        C400   1.395       .  A
C392        H408   1.110       .  S
C392        H409   1.109       .  S
C392        H410   1.111       .  S
C394        H405   1.110       .  S
C394        H406   1.111       .  S
C394        H407   1.107       .  S
C396        C397   1.404       .  A
C396        C401   1.506       .  S
C397        C398   1.404       .  A
C397        H402   1.078       .  S
C398        C399   1.423       .  A
C399        C400   1.399       .  A
C399        C403   1.500       .  S
C400        H404   1.085       .  S
C401        H411   1.111       .  S
C401        H412   1.110       .  S
C401        H413   1.109       .  S
C403        H414   1.110       .  S
C403        H415   1.093       .  S
C403        H416   1.111       .  S
C417        C418   1.400       .  A
C417        C422   1.401       .  A
C417        H427   1.085       .  S
C418        C419   1.412       .  A
C418        C423   1.488       .  S
C419        C420   1.408       .  A
C419        C424   1.510       .  S
C420        C421   1.412       .  A
C420        H425   1.082       .  S
C421        C422   1.424       .  A
C422        C426   1.509       .  S
C423        C428   1.409       .  A
C423        C432   1.399       .  A
C424        H440   1.110       .  S
C424        H441   1.104       .  S
C424        H442   1.111       .  S
C426        H437   1.110       .  S
C426        H438   1.111       .  S
C426        H439   1.106       .  S
C428        C429   1.405       .  A
C428        C433   1.508       .  S
C429        C430   1.411       .  A
C429        H434   1.082       .  S
C430        C431   1.427       .  A
C431        C432   1.404       .  A
C431        C435   1.501       .  S
C432        H436   1.085       .  S
C433        H443   1.105       .  S
C433        H444   1.111       .  S
C433        H445   1.103       .  S
C435        H446   1.111       .  S
C435        H447   1.087       .  S
C435        H448   1.110       .  S
C449        C450   1.402       .  A
C449        C454   1.405       .  A
C449        H459   1.084       .  S
C450        C451   1.410       .  A
C450        C455   1.487       .  S
C451        C452   1.405       .  A
C451        C456   1.508       .  S
C452        C453   1.407       .  A
C452        H457   1.077       .  S
C453        C454   1.420       .  A
C454        C458   1.507       .  S
C455        C460   1.417       .  A
C455        C464   1.403       .  A
C456        H472   1.110       .  S
C456        H473   1.108       .  S
C456        H474   1.111       .  S
C458        H469   1.110       .  S
C458        H470   1.110       .  S
C458        H471   1.105       .  S
C460        C461   1.402       .  A
C460        C465   1.505       .  S
C461        C462   1.401       .  A
C461        H466   1.085       .  S
C462        C463   1.415       .  A
C463        C464   1.404       .  A
C463        C467   1.507       .  S
C464        H468   1.084       .  S
C465        H475   1.110       .  S
C465        H476   1.110       .  S
C465        H477   1.105       .  S
C467        H478   1.110       .  S
C467        H479   1.108       .  S
C467        H480   1.110       .  S
C481        C482   1.400       .  A
C481        C486   1.401       .  A
C481        H491   1.085       .  S
C482        C483   1.413       .  A
C482        C487   1.481       .  S
C483        C484   1.406       .  A
C483        C488   1.506       .  S
C484        C485   1.402       .  A
C484        H489   1.084       .  S
C485        C486   1.416       .  A
C486        C490   1.508       .  S
C487        C492   1.410       .  A
C487        C496   1.399       .  A
C488        H504   1.108       .  S
C488        H505   1.108       .  S
C488        H506   1.111       .  S
C490        H501   1.110       .  S
C490        H502   1.110       .  S
C490        H503   1.108       .  S
C492        C493   1.408       .  A
C492        C497   1.506       .  S
C493        C494   1.406       .  A
C493        H498   1.076       .  S
C494        C495   1.416       .  A
C495        C496   1.399       .  A
C495        C499   1.502       .  S
C496        H500   1.085       .  S
C497        H507   1.111       .  S
C497        H508   1.110       .  S
C497        H509   1.108       .  S
C499        H510   1.111       .  S
C499        H511   1.102       .  S
C499        H512   1.110       .  S
C513        C514   1.402       .  A
C513        C518   1.404       .  A
C513        H523   1.084       .  S
C514        C515   1.409       .  A
C514        C519   1.481       .  S
C515        C516   1.399       .  A
C515        C520   1.508       .  S
C516        C517   1.401       .  A
C516        H521   1.073       .  S
C517        C518   1.418       .  A
C518        C522   1.506       .  S
C519        C524   1.410       .  A
C519        C528   1.401       .  A
C520        H536   1.109       .  S
C520        H537   1.110       .  S
C520        H538   1.111       .  S
C522        H533   1.110       .  S
C522        H534   1.110       .  S
C522        H535   1.108       .  S
C524        C525   1.400       .  A
C524        C529   1.508       .  S
C525        C526   1.406       .  A
C525        H530   1.084       .  S
C526        C527   1.419       .  A
C527        C528   1.405       .  A
C527        C531   1.508       .  S
C528        H532   1.084       .  S
C529        H539   1.111       .  S
C529        H540   1.106       .  S
C529        H541   1.110       .  S
C531        H542   1.107       .  S
C531        H543   1.110       .  S
C531        H544   1.111       .  S
C545        C546   1.403       .  A
C545        C550   1.402       .  A
C545        H555   1.084       .  S
C546        C547   1.416       .  A
C546        C551   1.486       .  S
C547        C548   1.402       .  A
C547        C552   1.508       .  S
C548        C549   1.402       .  A
C548        H553   1.085       .  S
C549        C550   1.414       .  A
C550        C554   1.507       .  S
C551        C556   1.415       .  A
C551        C560   1.398       .  A
C552        H568   1.108       .  S
C552        H569   1.106       .  S
C552        H570   1.111       .  S
C554        H565   1.110       .  S
C554        H566   1.110       .  S
C554        H567   1.108       .  S
C556        C557   1.404       .  A
C556        C561   1.507       .  S
C557        C558   1.404       .  A
C557        H562   1.084       .  S
C558        C559   1.416       .  A
C559        C560   1.399       .  A
C559        C563   1.497       .  S
C560        H564   1.084       .  S
C561        H571   1.111       .  S
C561        H572   1.108       .  S
C561        H573   1.110       .  S
C563        H574   1.110       .  S
C563        H575   1.097       .  S
C563        H576   1.111       .  S
C577        C578   1.396       .  A
C577        C582   1.401       .  A
C577        H587   1.085       .  S
C578        C579   1.410       .  A
C578        C583   1.482       .  S
C579        C580   1.406       .  A
C579        C584   1.506       .  S
C580        C581   1.408       .  A
C580        H585   1.083       .  S
C581        C582   1.420       .  A
C582        C586   1.500       .  S
C583        C588   1.410       .  A
C583        C592   1.401       .  A
C584        H600   1.110       .  S
C584        H601   1.108       .  S
C584        H602   1.111       .  S
C586        H597   1.110       .  S
C586        H598   1.110       .  S
C586        H599   1.091       .  S
C588        C589   1.401       .  A
C588        C593   1.507       .  S
C589        C590   1.408       .  A
C589        H594   1.084       .  S
C590        C591   1.421       .  A
C591        C592   1.406       .  A
C591        C595   1.508       .  S
C592        H596   1.085       .  S
C593        H603   1.111       .  S
C593        H604   1.110       .  S
C593        H605   1.104       .  S
C595        H606   1.111       .  S
C595        H607   1.105       .  S
C595        H608   1.110       .  S
C609        C610   1.399       .  A
C609        C614   1.400       .  A
C609        H619   1.084       .  S
C610        C611   1.409       .  A
C610        C615   1.476       .  S
C611        C612   1.404       .  A
C611        C616   1.507       .  S
C612        C613   1.407       .  A
C612        H617   1.084       .  S
C613        C614   1.419       .  A
C614        C618   1.508       .  S
C615        C620   1.411       .  A
C615        C624   1.398       .  A
C616        H632   1.110       .  S
C616        H633   1.108       .  S
C616        H634   1.111       .  S
C618        H629   1.110       .  S
C618        H630   1.111       .  S
C618        H631   1.107       .  S
C620        C621   1.403       .  A
C620        C625   1.507       .  S
C621        C622   1.402       .  A
C621        H626   1.077       .  S
C622        C623   1.419       .  A
C623        C624   1.399       .  A
C623        C627   1.508       .  S
C624        H628   1.084       .  S
C625        H635   1.111       .  S
C625        H636   1.110       .  S
C625        H637   1.108       .  S
C627        H638   1.110       .  S
C627        H639   1.106       .  S
C627        H640   1.110       .  S
C641        C642   1.400       .  A
C641        C646   1.403       .  A
C641        H651   1.085       .  S
C642        C643   1.408       .  A
C642        C647   1.480       .  S
C643        C644   1.401       .  A
C643        C648   1.507       .  S
C644        C645   1.407       .  A
C644        H649   1.083       .  S
C645        C646   1.417       .  A
C646        C650   1.503       .  S
C647        C652   1.411       .  A
C647        C656   1.401       .  A
C648        H664   1.110       .  S
C648        H665   1.111       .  S
C648        H666   1.111       .  S
C650        H661   1.111       .  S
C650        H662   1.110       .  S
C650        H663   1.099       .  S
C652        C653   1.403       .  A
C652        C657   1.507       .  S
C653        C654   1.402       .  A
C653        H658   1.084       .  S
C654        C655   1.415       .  A
C655        C656   1.403       .  A
C655        C659   1.507       .  S
C656        H660   1.084       .  S
C657        H667   1.111       .  S
C657        H668   1.110       .  S
C657        H669   1.110       .  S
C659        H670   1.110       .  S
C659        H671   1.108       .  S
C659        H672   1.110       .  S
