geometry optimzed in LAMMPS
_audit_creation_date              2020-11-30 
_audit_creation_method            'lammps2cif' 
_symmetry_space_group_name_H-M    'P1' 
_symmetry_Int_Tables_number       1 
_symmetry_cell_setting            triclinic 
loop_ 
_symmetry_equiv_pos_as_xyz 
  x,y,z 
_cell_length_a                    41.18275515 
_cell_length_b                    40.92393900483995 
_cell_length_c                    26.913539659918637 
_cell_angle_alpha                 89.22206436199113 
_cell_angle_beta                  91.20391147390059 
_cell_angle_gamma                 120.04357988868055 
loop_ 
_atom_site_label 
_atom_site_type_symbol 
_atom_site_fract_x 
_atom_site_fract_y 
_atom_site_fract_z 
_atom_site_charge 
C1          C  0.81852885  0.26194148  0.04134445     0.80000
N2          N  0.83676216  0.25238608  0.00806133    -0.78300
C3          C  0.81773775  0.22492655  0.97387120     0.82500
N4          N  0.75863678  0.14660897  0.34918637    -0.78200
C5          C  0.73822251  0.15929615  0.37275848     0.82600
N6          N  0.75633324  0.19388202  0.39591770    -0.79900
C7          C  0.22387628  0.45306979  0.38324813     0.80000
N8          N  0.26161075  0.47461654  0.39389377    -0.78300
C9          C  0.27459366  0.45547672  0.08136094     0.82500
N10         N  0.25262785  0.41721863  0.08226389    -0.78200
C11         C  0.22983106  0.39862500  0.37942286     0.82600
N12         N  0.20860156  0.41536246  0.37636626    -0.79900
C13         C  0.45727463  0.15592388  0.05223472     0.80000
N14         N  0.42057322  0.13958171  0.03777063    -0.78300
C15         C  0.40554632  0.16023320  0.02015852     0.82500
N16         N  0.45910750  0.22608153  0.29587714    -0.78200
C17         C  0.48713923  0.24662703  0.32899403     0.82600
N18         N  0.47930739  0.19481507  0.04947379    -0.79900
C19         C  0.24520159  0.73273839  0.33575977     0.80000
N20         N  0.24860224  0.75874001  0.07161676    -0.78300
C21         C  0.21062439  0.73513951  0.07681524     0.82500
N22         N  0.18679662  0.74804987  0.06566723    -0.78200
C23         C  0.19950013  0.78370291  0.04937676     0.82600
N24         N  0.22696963  0.74515687  0.30563936    -0.79900
C25         C  0.81282475  0.54448435  0.35440958     0.80000
N26         N  0.78440266  0.53583024  0.38708040    -0.78300
C27         C  0.75355179  0.54466095  0.01991224     0.82500
N28         N  0.75907653  0.56955796  0.98256743    -0.78200
C29         C  0.80288560  0.59152927  0.31767459     0.82600
N30         N  0.82138993  0.57199581  0.32006397    -0.79900
C31         C  0.54417469  0.76761692  0.04631790     0.80000
N32         N  0.56961797  0.78934864  0.01175671    -0.78300
C33         C  0.57860568  0.77368519  0.97436974     0.82500
N34         N  0.58691680  0.75646670  0.34103881    -0.78200
C35         C  0.55359366  0.73769688  0.36421403     0.82600
N36         N  0.52779269  0.72911724  0.04401808    -0.79900
O37         O  0.92947291  0.00248607  0.91708564    -0.88500
C38         C  0.96880181  0.94283803  0.12651526     0.87500
Mg39       Mg  0.96981923  0.05936134  0.93927100     1.58100
O40         O  0.95576775  0.91818840  0.92619907    -0.88300
O41         O  0.89840811  0.94576722  0.94901668    -0.75600
C42         C  0.17946415  0.05989535  0.19418075     0.92500
O43         O  0.00068961  0.03337236  0.15247082    -0.75400
O44         O  0.16458830  0.08016341  0.20116770    -0.82900
Mg45       Mg  0.95038657  0.98652041  0.19292389     1.58000
C46         C  0.04620586  0.90537791  0.96512779     0.92500
O47         O  0.85316154  0.94868989  0.85066655    -0.81200
H48         H  0.93267822  0.89730145  0.99211874    -0.06500
C49         C  0.08040755  0.99237619  0.12813093     0.87400
O50         O  0.99117384  0.03779283  0.00376423    -0.75700
O51         O  0.96435325  0.94547218  0.17128391    -0.88500
O52         O  0.01933975  0.89242464  0.93333893    -0.81300
C53         C  0.94571061  0.83682341  0.14938374     0.92600
C54         C  0.83277819  0.91281173  0.85331711     0.92400
Mg55       Mg  0.04641778  0.98361223  0.97373110     1.58000
O56         O  0.16009445  0.02396417  0.19535406    -0.81200
O57         O  0.98680413  0.93968627  0.99623563    -0.75400
O58         O  0.93328952  0.85913107  0.15692540    -0.81300
O59         O  0.93563197  0.02997237  0.21476637    -0.83000
O60         O  0.06502160  0.11554011  0.96889475    -0.81300
C61         C  0.95738307  0.91708289  0.97204193     0.86900
O62         O  0.03229825  0.02640562  0.97020575    -0.88400
O63         O  0.07197125  0.96936265  0.16264490    -0.88500
O64         O  0.09131947  0.02702581  0.13583108    -0.75600
Mg65       Mg  0.90284059  0.90536592  0.89443333     1.58000
O66         O  0.98079077  0.84974942  0.14531506    -0.83000
H67         H  0.90197755  0.99214097  0.98094411    -0.06700
O68         O  0.04739809  0.05270681  0.20574317    -0.88200
H69         H  0.05262064  0.07762904  0.13968399    -0.06500
H70         H  0.02297605  0.02124443  0.04328104    -0.06700
C71         C  0.03438024  0.05597907  0.16544056     0.86800
C72         C  0.90949820  0.98083274  0.94999193     0.87400
C73         C  0.01635980  0.02867279  0.00726849     0.87500
H74         H  0.07774810  0.98266509  0.09030531    -0.06700
O75         O  0.99076881  0.93173836  0.11163424    -0.75700
Mg76       Mg  0.10421637  0.06576443  0.20402926     1.58000
H77         H  0.95401278  0.95053915  0.09942226    -0.06700
C78         C  0.95457570  0.06218022  0.23486132     0.92500
O79         O  0.01269321  0.11900015  0.96514946    -0.82900
C80         C  0.04679294  0.13213633  0.97894314     0.92500
O81         O  0.84695224  0.89196763  0.86234716    -0.82900
Mg82       Mg  0.02767118  0.91144003  0.15162446     1.58200
O83         O  0.98743064  0.07390115  0.25288729    -0.81300
O84         O  0.06171190  0.93913826  0.98009408    -0.83000
C85         C  0.01618337  0.49297627  0.24056913    -0.02700
C86         C  0.49418839  0.95259068  0.23232648    -0.02700
C87         C  0.52448710  0.49946792  0.22309132    -0.02700
C88         C  0.60961464  0.79790462  0.94072840    -0.20100
C89         C  0.65505362  0.79985033  0.28069092     0.36200
C90         C  0.69243138  0.81561650  0.26590259    -0.26000
C91         C  0.67588390  0.83951687  0.88621822     0.02600
C92         C  0.67273130  0.85210459  0.93352103     0.27400
C93         C  0.63942657  0.83153796  0.95979162    -0.25200
N94         N  0.62529192  0.77055111  0.25155685    -0.82600
H95         H  0.69885219  0.80549444  0.23259863     0.13200
C96         C  0.71304902  0.85671221  0.86247330     0.02600
N97         N  0.70416474  0.88451134  0.95602272    -0.81100
H98         H  0.63785966  0.84048309  0.99693855     0.18000
C99         C  0.73320111  0.89585224  0.85464752    -0.26000
C100        C  0.77212337  0.91485440  0.84796317     0.36100
C101        C  0.79123196  0.89425025  0.84836744    -0.20000
C102        C  0.77001014  0.85453408  0.84916389    -0.25200
C103        C  0.77721140  0.83673406  0.27544579     0.27400
H104        H  0.71909395  0.91208775  0.85757007     0.13200
N105        N  0.79212649  0.95513326  0.84352850    -0.82500
H106        H  0.82712467  0.83485984  0.25897746     0.18000
N107        N  0.75608538  0.79760091  0.28953213    -0.81100
H108        H  0.78128504  0.96251513  0.81267442     0.33700
H109        H  0.78697907  0.96627645  0.87517134     0.38200
H110        H  0.77219823  0.78457707  0.28572870     0.33600
H111        H  0.75013871  0.79645126  0.32730515     0.30300
H112        H  0.69707590  0.89023579  0.99062357     0.33600
H113        H  0.72529021  0.87784513  0.96271930     0.30300
H114        H  0.60853766  0.78118433  0.23751473     0.38200
H115        H  0.63604181  0.76394451  0.22084911     0.33700
C116        C  0.50525940  0.92652877  0.20322349    -0.20100
C117        C  0.49460054  0.91471060  0.15315222     0.36200
C118        C  0.50036703  0.88644790  0.13279349    -0.26000
C119        C  0.51526268  0.86795480  0.16126416     0.02600
C120        C  0.52507152  0.87840732  0.21124793     0.27400
C121        C  0.51978451  0.90692305  0.23138840    -0.25200
N122        N  0.47625207  0.92964273  0.12284812    -0.82600
H123        H  0.49250177  0.87845100  0.09428565     0.13200
C124        C  0.52099614  0.83824386  0.13795976     0.02600
N125        N  0.53964367  0.85943909  0.24184224    -0.81100
H126        H  0.52684959  0.91366477  0.27014665     0.18000
C127        C  0.55720924  0.84307352  0.13717284    -0.26000
C128        C  0.56459939  0.81797541  0.11109122     0.36100
C129        C  0.53521737  0.78731088  0.08501860    -0.20000
C130        C  0.49854810  0.78094895  0.08849710    -0.25200
C131        C  0.49112813  0.80611268  0.11478099     0.27400
H132        H  0.58011560  0.86742111  0.15533130     0.13200
N133        N  0.60217091  0.82421729  0.10939868    -0.82500
H134        H  0.50029813  0.80054287  0.39823135     0.18000
N135        N  0.45355329  0.79972981  0.11702414    -0.81100
H136        H  0.62062139  0.84807956  0.13003489     0.33700
H137        H  0.60211456  0.80116578  0.12672929     0.38200
H138        H  0.46439120  0.82795699  0.41410087     0.33600
H139        H  0.44568441  0.79518081  0.15428288     0.30300
H140        H  0.54563924  0.87047510  0.27783618     0.33600
H141        H  0.51854347  0.83119212  0.24499966     0.30300
H142        H  0.45029123  0.90710314  0.11151422     0.38200
H143        H  0.49235792  0.94093966  0.09122618     0.33700
C144        C  0.52869362  0.53089910  0.26048815    -0.20100
C145        C  0.49783275  0.52549945  0.28990333     0.36200
C146        C  0.49816211  0.55621645  0.31369566    -0.26000
C147        C  0.52864394  0.59291576  0.30967937     0.02600
C148        C  0.56048581  0.59854109  0.28384514     0.27400
C149        C  0.56027821  0.56789650  0.25982141    -0.25200
N150        N  0.46505557  0.48895763  0.29403835    -0.82600
H151        H  0.47371497  0.55149138  0.33400300     0.13200
C152        C  0.52615239  0.62579020  0.32910251     0.02600
N153        N  0.59272346  0.63579737  0.28086719    -0.81100
H154        H  0.58416870  0.57417949  0.23746982     0.18000
C155        C  0.54015528  0.64023456  0.37670835    -0.26000
C156        C  0.54393370  0.67490090  0.39239923     0.36100
C157        C  0.53378869  0.69581388  0.35975692    -0.20000
C158        C  0.51741648  0.67991645  0.31342561    -0.25200
C159        C  0.51341633  0.64521947  0.29807357     0.27400
H160        H  0.55028920  0.62562342  0.40045786     0.13200
N161        N  0.56112050  0.69064287  0.43970491    -0.82500
H162        H  0.51065641  0.69606790  0.28723016     0.18000
N163        N  0.49855778  0.63089227  0.24955155    -0.81100
H164        H  0.56766911  0.67229530  0.45904120     0.33700
H165        H  0.54121191  0.69277884  0.46074420     0.38200
H166        H  0.47154533  0.62715844  0.24684055     0.33600
H167        H  0.51524547  0.65125116  0.22338964     0.30300
H168        H  0.61421420  0.63535831  0.26142747     0.33600
H169        H  0.58492924  0.65265302  0.26016977     0.30300
H170        H  0.46095828  0.48169179  0.33170219     0.38200
H171        H  0.44196131  0.49081727  0.28084073     0.33700
C172        C  0.81511613  0.62305653  0.28151811    -0.20100
C173        C  0.78262715  0.63664555  0.91802025     0.36200
C174        C  0.83428403  0.68839653  0.26235707    -0.26000
C175        C  0.84841611  0.68594930  0.21628254     0.02600
C176        C  0.84430038  0.65102188  0.20175642     0.27400
C177        C  0.82816428  0.62010528  0.23480434    -0.25200
N178        N  0.75484082  0.63041044  0.95383828    -0.82600
H179        H  0.79134576  0.69148651  0.89859930     0.13200
C180        C  0.87017464  0.72115091  0.18645885     0.02600
N181        N  0.85686262  0.64722334  0.15386591    -0.81100
H182        H  0.82612428  0.59366235  0.22429220     0.18000
C183        C  0.89019059  0.73643320  0.85541427    -0.26000
C184        C  0.91297932  0.77573397  0.85337787     0.36100
C185        C  0.91888891  0.79536166  0.15150442    -0.20000
C186        C  0.88083218  0.78286629  0.16038891    -0.25200
C187        C  0.85641515  0.74613829  0.17767458     0.27400
H188        H  0.90166409  0.71999661  0.87195098     0.13200
N189        N  0.95073414  0.79251334  0.87229234    -0.82500
H190        H  0.87050073  0.80249594  0.15694235     0.18000
N191        N  0.81810982  0.73463841  0.18854902    -0.81100
H192        H  0.96481203  0.78186943  0.85212272     0.33700
H193        H  0.94989886  0.78421798  0.90939417     0.38200
H194        H  0.81252134  0.75647815  0.18088179     0.33600
H195        H  0.80096115  0.71246805  0.16459187     0.30300
H196        H  0.85191416  0.61978436  0.14898018     0.33600
H197        H  0.84060845  0.65139627  0.12693682     0.30300
H198        H  0.73251681  0.63085903  0.93524903     0.38200
H199        H  0.76658195  0.65275001  0.97913285     0.33700
C200        C  0.56178934  0.51112214  0.19376680    -0.20100
C201        C  0.59507574  0.51691588  0.21938365     0.36200
C202        C  0.62640961  0.52125146  0.19312030    -0.26000
C203        C  0.62636024  0.52035704  0.14112755     0.02600
C204        C  0.59428061  0.51573477  0.11518043     0.27400
C205        C  0.56258007  0.51077723  0.14110571    -0.25200
N206        N  0.59711229  0.51783568  0.27259278    -0.82600
H207        H  0.65110052  0.52545351  0.21371148     0.13200
C208        C  0.66067942  0.52649718  0.11410094     0.02600
N209        N  0.59349041  0.51535917  0.06202699    -0.81100
H210        H  0.53800083  0.50487101  0.11915369     0.18000
C211        C  0.66826400  0.49685205  0.10717319    -0.26000
C212        C  0.69922052  0.50196919  0.07895859     0.36100
C213        C  0.72357108  0.53757377  0.05699599    -0.20000
C214        C  0.71645579  0.56731984  0.06612606    -0.25200
C215        C  0.68561189  0.56208513  0.09395791     0.27400
H216        H  0.64945204  0.46927814  0.12270358     0.13200
N217        N  0.70421519  0.47019316  0.07168946    -0.82500
H218        H  0.76596548  0.59331586  0.46701153     0.18000
N219        N  0.67940119  0.59311330  0.10126543    -0.81100
H220        H  0.70360154  0.46546360  0.03351605     0.33700
H221        H  0.73055991  0.47677353  0.08607372     0.38200
H222        H  0.73027843  0.59166554  0.54909238     0.33600
H223        H  0.67657175  0.60300377  0.06634113     0.30300
H224        H  0.57079274  0.48962384  0.05049444     0.33600
H225        H  0.58861021  0.53684595  0.04949732     0.30300
H226        H  0.60234240  0.49653188  0.28491654     0.38200
H227        H  0.61991158  0.54375734  0.28353459     0.33700
C228        C  0.98809360  0.50196174  0.26829295    -0.20100
C229        C  0.97642672  0.49199608  0.31850653     0.36200
C230        C  0.94675552  0.49609815  0.33743141    -0.26000
C231        C  0.92693722  0.50878643  0.30749158     0.02600
C232        C  0.93836556  0.51899853  0.25806230     0.27400
C233        C  0.96749277  0.51461238  0.23897604    -0.25200
N234        N  0.99274306  0.47563970  0.35017773    -0.82600
H235        H  0.93823051  0.48797190  0.37550118     0.13200
C236        C  0.89427754  0.51122678  0.32749901     0.02600
N237        N  0.92066854  0.53439664  0.22689656    -0.81100
H238        H  0.97409520  0.52127442  0.20015256     0.18000
C239        C  0.89953314  0.53522731  0.36757604    -0.26000
C240        C  0.87104357  0.54302715  0.38133915     0.36100
C241        C  0.83638421  0.52621143  0.35502996    -0.20000
C242        C  0.83014683  0.49986423  0.31781239    -0.25200
C243        C  0.85844504  0.49196795  0.30434112     0.27400
H244        H  0.92668995  0.54970133  0.38618558     0.13200
N245        N  0.87219686  0.57938674  0.04809747    -0.82500
H246        H  0.80394357  0.48709981  0.29681612     0.18000
N247        N  0.85099629  0.46501400  0.26605479    -0.81100
H248        H  0.89972642  0.59459863  0.06192289     0.33700
H249        H  0.85506244  0.56642196  0.07864695     0.38200
H250        H  0.82843374  0.43911351  0.27714834     0.33600
H251        H  0.84272993  0.47368506  0.23385163     0.30300
H252        H  0.94129115  0.56121216  0.21520149     0.33600
H253        H  0.90970753  0.51733014  0.19542594     0.30300
H254        H  0.00346474  0.49257536  0.38177035     0.38200
H255        H  0.97141604  0.44895480  0.36116473     0.33700
C256        C  0.17323371  0.79789139  0.03841347    -0.20100
C257        C  0.13385684  0.77368072  0.03483322     0.36200
C258        C  0.11051526  0.78893424  0.02521475    -0.26000
C259        C  0.12564713  0.82784990  0.01869523     0.02600
C260        C  0.17993244  0.79415988  0.21305028     0.27400
C261        C  0.19244893  0.77147989  0.23629181    -0.25200
N262        N  0.11729143  0.73362773  0.04026373    -0.82600
H263        H  0.08039976  0.77028417  0.02288752     0.13200
C264        C  0.10063238  0.84334655  0.00830337     0.02600
N265        N  0.20282996  0.82219041  0.17707936    -0.81100
H266        H  0.21984343  0.77585853  0.22713463     0.18000
C267        C  0.10225672  0.87101385  0.03991752    -0.26000
C268        C  0.08352280  0.89060143  0.02742691     0.36100
C269        C  0.06151993  0.88150209  0.98332854    -0.20000
C270        C  0.08795959  0.83532145  0.18562127    -0.25200
C271        C  0.09879272  0.80793877  0.19159223     0.27400
H272        H  0.11951092  0.87859401  0.07346286     0.13200
N273        N  0.08769187  0.92033567  0.05910796    -0.82500
H274        H  0.05999416  0.82665936  0.17148670     0.18000
N275        N  0.07346090  0.76931760  0.17810556    -0.81100
H276        H  0.11625954  0.94026540  0.06234647     0.33700
H277        H  0.07812727  0.90887695  0.09419901     0.38200
H278        H  0.04814972  0.76612136  0.16413508     0.33600
H279        H  0.08561398  0.76261595  0.14913204     0.30300
H280        H  0.22746456  0.82146407  0.17106985     0.33600
H281        H  0.18786986  0.81511186  0.14337871     0.30300
H282        H  0.09844024  0.72488398  0.06958416     0.38200
H283        H  0.10211439  0.72090893  0.00769732     0.33700
C284        C  0.19320855  0.69569133  0.09572891    -0.20100
C285        C  0.16626620  0.66585955  0.06574915     0.36200
C286        C  0.13999058  0.63131149  0.08782426    -0.26000
C287        C  0.13944788  0.62611827  0.13946148     0.02600
C288        C  0.16788278  0.65489134  0.16888988     0.27400
C289        C  0.19443744  0.68938552  0.14699023    -0.25200
N290        N  0.16418342  0.67178954  0.01327251    -0.82600
H291        H  0.11838182  0.60921347  0.06507171     0.13200
C292        C  0.10699391  0.59228970  0.16254386     0.02600
N293        N  0.16878418  0.64964732  0.22145185    -0.81100
H294        H  0.21419087  0.71223641  0.17066865     0.18000
C295        C  0.10135798  0.55601449  0.15490079    -0.26000
C296        C  0.07166395  0.52398224  0.17774332     0.36100
C297        C  0.04556178  0.52738568  0.20841344    -0.20000
C298        C  0.05145570  0.56439033  0.21448203    -0.25200
C299        C  0.08134924  0.59620082  0.19200000     0.27400
H300        H  0.12075043  0.55255486  0.13198341     0.13200
N301        N  0.06852886  0.48793182  0.17011579    -0.82500
H302        H  0.03448490  0.56982381  0.23930988     0.18000
N303        N  0.08574620  0.63280243  0.19958986    -0.81100
H304        H  0.09345756  0.48948388  0.18272663     0.33700
H305        H  0.06608466  0.48267184  0.13192782     0.38200
H306        H  0.06121346  0.63213247  0.18707819     0.33600
H307        H  0.08862039  0.63814852  0.23778279     0.30300
H308        H  0.19526319  0.65382867  0.23145144     0.33600
H309        H  0.16541798  0.67044748  0.23854377     0.30300
H310        H  0.18917280  0.67628882  0.99778729     0.38200
H311        H  0.14250401  0.64754598  0.99649360     0.33700
C312        C  0.45741776  0.92133829  0.25802176    -0.20100
C313        C  0.45606792  0.90624934  0.30654848     0.36200
C314        C  0.42331928  0.87359543  0.32306661    -0.26000
C315        C  0.39179295  0.85365462  0.29190288     0.02600
C316        C  0.39290375  0.86767214  0.24358668     0.27400
C317        C  0.42531731  0.90014594  0.22713912    -0.25200
N318        N  0.48826046  0.92216463  0.33875642    -0.82600
H319        H  0.42312811  0.86290334  0.36019124     0.13200
C320        C  0.35769019  0.81865009  0.31021604     0.02600
N321        N  0.36087371  0.84926964  0.21094003    -0.81100
H322        H  0.42508241  0.90920016  0.18934247     0.18000
C323        C  0.33864099  0.82079410  0.35164318    -0.26000
C324        C  0.30332307  0.79035229  0.36489099     0.36100
C325        C  0.28672437  0.75659706  0.33726667    -0.20000
C326        C  0.30711695  0.75335632  0.29831992    -0.25200
C327        C  0.34254233  0.78380358  0.28486836     0.27400
H328        H  0.35002114  0.84710714  0.37183329     0.13200
N329        N  0.28293531  0.79482977  0.40413718    -0.82500
H330        H  0.29413198  0.72796225  0.27597722     0.18000
N331        N  0.36252783  0.77997657  0.24429629    -0.81100
H332        H  0.29933317  0.80137394  0.43663062     0.33700
H333        H  0.27934016  0.81779660  0.39531954     0.38200
H334        H  0.38770465  0.78310263  0.25868189     0.33600
H335        H  0.34756753  0.75283691  0.22927153     0.30300
H336        H  0.35260946  0.86881677  0.20077383     0.33600
H337        H  0.36908573  0.84148655  0.17875619     0.30300
H338        H  0.49511522  0.90124364  0.34671575     0.38200
H339        H  0.48037460  0.92882159  0.37194275     0.33700
C340        C  0.22090364  0.07872340  0.18867844    -0.20100
C341        C  0.23934835  0.05806110  0.18005210     0.36200
C342        C  0.27849445  0.07578613  0.18526793    -0.26000
C343        C  0.29974707  0.11369697  0.19949716     0.02600
C344        C  0.23405944  0.12455311  0.98192903     0.27400
C345        C  0.19577463  0.11119244  0.97258788    -0.25200
N346        N  0.21852232  0.01877678  0.16773185    -0.82600
H347        H  0.29220782  0.05931298  0.18069745     0.13200
C348        C  0.33926330  0.12898452  0.21601537     0.02600
N349        N  0.25859862  0.16317549  0.99620007    -0.81100
H350        H  0.18494975  0.13031734  0.97616423     0.18000
C351        C  0.36805096  0.16159361  0.19372903    -0.26000
C352        C  0.40422648  0.18043288  0.21525197     0.36100
C353        C  0.41176054  0.16620718  0.25938245    -0.20000
C354        C  0.33895737  0.11145555  0.03350619    -0.25200
C355        C  0.30036977  0.09669069  0.02465043     0.27400
H356        H  0.36198694  0.17333510  0.16086652     0.13200
N357        N  0.43302549  0.21422410  0.19271298    -0.82500
H358        H  0.34825883  0.09995617  0.06344292     0.18000
N359        N  0.27332948  0.06617874  0.05453332    -0.81100
H360        H  0.43644176  0.20779075  0.15640051     0.33700
H361        H  0.42379957  0.23381771  0.19070499     0.38200
H362        H  0.28677616  0.05751078  0.08045293     0.33600
H363        H  0.25896429  0.07649780  0.07470018     0.30300
H364        H  0.24387594  0.17782718  0.99725485     0.33600
H365        H  0.26817726  0.16308697  0.03246702     0.30300
H366        H  0.22802547  0.01500521  0.13376271     0.38200
H367        H  0.22436429  0.00386102  0.19490698     0.33700
C368        C  0.48822807  0.98147552  0.19882790    -0.20100
C369        C  0.45805447  0.98920715  0.20347016     0.36200
C370        C  0.45776501  0.01868130  0.17599756    -0.26000
C371        C  0.48731498  0.04294832  0.14524470     0.02600
C372        C  0.51795184  0.03693228  0.14158002     0.27400
C373        C  0.51794819  0.00649901  0.16740974    -0.25200
N374        N  0.42796296  0.96881800  0.23726415    -0.82600
H375        H  0.43425553  0.02335528  0.17994998     0.13200
C376        C  0.48414300  0.07311329  0.11625930     0.02600
N377        N  0.54916098  0.06156003  0.11143285    -0.81100
H378        H  0.54199465  0.00277007  0.16346642     0.18000
C379        C  0.50897431  0.11200237  0.12445685    -0.26000
C380        C  0.50240252  0.14007897  0.10239879     0.36100
C381        C  0.47050439  0.12939225  0.07133811    -0.20000
C382        C  0.44750204  0.09048024  0.06090804    -0.25200
C383        C  0.45376387  0.06278086  0.08302326     0.27400
H384        H  0.53269238  0.12059028  0.14968193     0.13200
N385        N  0.52751460  0.17908069  0.11303455    -0.82500
H386        H  0.42340928  0.08089320  0.03611733     0.18000
N387        N  0.42870397  0.02376018  0.07189418    -0.81100
H388        H  0.55430206  0.18572773  0.10182989     0.33700
H389        H  0.52844394  0.18268337  0.15152117     0.38200
H390        H  0.40163225  0.01711599  0.08169128     0.33600
H391        H  0.42878532  0.02015420  0.03351562     0.30300
H392        H  0.57318661  0.07388837  0.13422844     0.33600
H393        H  0.55275786  0.04526452  0.08491923     0.30300
H394        H  0.40282102  0.95609318  0.21667469     0.38200
H395        H  0.42685313  0.98802157  0.26139740     0.33700
C396        C  0.51660149  0.46167943  0.24954087    -0.20100
C397        C  0.51126313  0.43028563  0.22071063     0.36200
C398        C  0.50908054  0.39819971  0.24349962    -0.26000
C399        C  0.51213650  0.39572381  0.29498900     0.02600
C400        C  0.51691382  0.42598551  0.32445195     0.27400
C401        C  0.51938589  0.45855425  0.30187984    -0.25200
N402        N  0.50833705  0.43086780  0.16765407    -0.82600
H403        H  0.50494709  0.37482939  0.22049161     0.13200
C404        C  0.50864143  0.36027115  0.31640523     0.02600
N405        N  0.51991422  0.42402325  0.37735159    -0.81100
H406        H  0.52509153  0.48185975  0.32585037     0.18000
C407        C  0.53873961  0.35328485  0.31357642    -0.26000
C408        C  0.53363181  0.31685641  0.32299773     0.36100
C409        C  0.49766599  0.28690353  0.33497959    -0.20000
C410        C  0.46838820  0.29477149  0.34099719    -0.25200
C411        C  0.47355698  0.33094066  0.33173532     0.27400
H412        H  0.56572035  0.37578802  0.30133250     0.13200
N413        N  0.56395889  0.30956522  0.31656138    -0.82500
H414        H  0.44425545  0.26067258  0.07753640     0.18000
N415        N  0.44241787  0.33721000  0.33471879    -0.81100
H416        H  0.58830086  0.33432449  0.30640118     0.33700
H417        H  0.56971482  0.30146370  0.35113428     0.38200
H418        H  0.41950378  0.30423326  0.04505599     0.33600
H419        H  0.43208591  0.33055060  0.37081080     0.30300
H420        H  0.54572907  0.44671829  0.38879670     0.33600
H421        H  0.49871235  0.42738480  0.39287179     0.30300
H422        H  0.52972423  0.42739489  0.15298686     0.38200
H423        H  0.48261651  0.40777749  0.15675082     0.33700
C424        C  0.19108311  0.35876138  0.07400201    -0.20100
C425        C  0.18199939  0.33788258  0.33810739     0.36200
C426        C  0.17674362  0.29819259  0.03963768    -0.26000
C427        C  0.14023754  0.28134576  0.05800972     0.02600
C428        C  0.12964188  0.30281250  0.08673004     0.27400
C429        C  0.15502927  0.34134532  0.09437870    -0.25200
N430        N  0.16666719  0.35739088  0.31061328    -0.82600
H431        H  0.14322739  0.28419471  0.30554899     0.13200
C432        C  0.11282962  0.24221414  0.04308007     0.02600
N433        N  0.09297443  0.28560584  0.10755843    -0.81100
H434        H  0.14623347  0.35790492  0.11538858     0.18000
C435        C  0.18333250  0.22597729  0.31443651    -0.26000
C436        C  0.16538218  0.18828890  0.29858162     0.36100
C437        C  0.06698489  0.16874638  0.00513753    -0.20000
C438        C  0.06099983  0.19830508  0.99006464    -0.25200
C439        C  0.08397240  0.23500692  0.00833852     0.27400
H440        H  0.21069919  0.24592991  0.30006043     0.13200
N441        N  0.18380420  0.17695672  0.26396739    -0.82500
H442        H  0.03983254  0.19340884  0.96193441     0.18000
N443        N  0.07923494  0.26532712  0.98966582    -0.81100
H444        H  0.20927001  0.18210208  0.28002203     0.33700
H445        H  0.18972676  0.19386997  0.23219508     0.38200
H446        H  0.08245458  0.26668129  0.95112664     0.33600
H447        H  0.05179774  0.25886063  0.99687580     0.30300
H448        H  0.09608581  0.28910113  0.14610680     0.33600
H449        H  0.07967909  0.30010749  0.09417569     0.30300
H450        H  0.13823979  0.34502294  0.31905482     0.38200
H451        H  0.16866038  0.35344535  0.27273009     0.33700
C452        C  0.31607028  0.47154242  0.08949564    -0.20100
C453        C  0.33503450  0.45631740  0.06365543     0.36200
C454        C  0.37103057  0.46391665  0.07937687    -0.26000
C455        C  0.38906955  0.48651463  0.12099005     0.02600
C456        C  0.37126202  0.50359854  0.14550112     0.27400
C457        C  0.33510976  0.49619682  0.12929988    -0.25200
N458        N  0.31729924  0.43216340  0.02182551    -0.82600
H459        H  0.38438692  0.45083008  0.06002994     0.13200
C460        C  0.42428669  0.48848028  0.14157955     0.02600
N461        N  0.38926976  0.52711466  0.18803135    -0.81100
H462        H  0.32077276  0.50764886  0.14989722     0.18000
C463        C  0.45926710  0.52158976  0.13800707    -0.26000
C464        C  0.49188893  0.52450517  0.16095362     0.36100
C465        C  0.49041950  0.49373428  0.18848205    -0.20000
C466        C  0.45496388  0.46010258  0.18978987    -0.25200
C467        C  0.42261719  0.45733182  0.16671134     0.27400
H468        H  0.46116093  0.54575599  0.11835348     0.13200
N469        N  0.52649383  0.55948988  0.15762618    -0.82500
H470        H  0.45098622  0.43606743  0.21154277     0.18000
N471        N  0.38742724  0.42298005  0.17081221    -0.81100
H472        H  0.52227816  0.58112291  0.17024764     0.33700
H473        H  0.53396463  0.56443563  0.12034416     0.38200
H474        H  0.39035891  0.40124610  0.15558257     0.33600
H475        H  0.38159311  0.41709267  0.20855511     0.30300
H476        H  0.37267344  0.53747187  0.20198512     0.33600
H477        H  0.39129986  0.51018737  0.21597552     0.30300
H478        H  0.31580951  0.40631085  0.02926598     0.38200
H479        H  0.33447475  0.44426871  0.99107568     0.33700
C480        C  0.19834531  0.46899567  0.37628110    -0.20100
C481        C  0.16492781  0.45406957  0.40370105     0.36200
C482        C  0.13537132  0.45997500  0.38762946    -0.26000
C483        C  0.13815516  0.48030546  0.34392682     0.02600
C484        C  0.17237056  0.49721510  0.31820721     0.27400
C485        C  0.20213567  0.49160321  0.33455233    -0.25200
N486        N  0.15536185  0.44842170  0.12333398    -0.82600
H487        H  0.10949224  0.44719717  0.40819458     0.13200
C488        C  0.10430213  0.48096630  0.32306022     0.02600
N489        N  0.17625703  0.51854827  0.27391103    -0.81100
H490        H  0.22718639  0.50269413  0.31244165     0.18000
C491        C  0.10023889  0.51257595  0.32964401    -0.26000
C492        C  0.06998846  0.51498773  0.30780919     0.36100
C493        C  0.04310635  0.48574068  0.27611742    -0.20000
C494        C  0.04705965  0.45338166  0.27140830    -0.25200
C495        C  0.07673086  0.45075444  0.29447926     0.27400
H496        H  0.12115335  0.53605318  0.35123234     0.13200
N497        N  0.06753971  0.54811181  0.31670169    -0.82500
H498        H  0.02890345  0.43067183  0.24674886     0.18000
N499        N  0.07919368  0.41755969  0.28623701    -0.81100
H500        H  0.09260524  0.57164140  0.30547307     0.33700
H501        H  0.06528910  0.55036498  0.35494425     0.38200
H502        H  0.10484682  0.42560247  0.26957285     0.33600
H503        H  0.07875227  0.40525677  0.32069291     0.30300
H504        H  0.19929879  0.54563799  0.27891507     0.33600
H505        H  0.18212344  0.50582520  0.24468382     0.30300
H506        H  0.17487078  0.46550975  0.15043219     0.38200
H507        H  0.12899246  0.44232190  0.13568629     0.33700
C508        C  0.93654668  0.08517539  0.24149111    -0.20100
C509        C  0.86446037  0.08660588  0.85139657     0.36200
C510        C  0.85281339  0.11313971  0.85765835    -0.26000
C511        C  0.89344463  0.11837333  0.26631621     0.02600
C512        C  0.92280752  0.12249053  0.29817056     0.27400
C513        C  0.94447764  0.10641009  0.28517511    -0.25200
N514        N  0.83775132  0.04720176  0.85611331    -0.82600
H515        H  0.82378919  0.10317366  0.86663151     0.13200
C516        C  0.86766827  0.13144716  0.28178465     0.02600
N517        N  0.92923755  0.14108406  0.34508901    -0.81100
H518        H  0.96594872  0.10847569  0.31105566     0.18000
C519        C  0.83021503  0.10468022  0.29151540    -0.26000
C520        C  0.80592193  0.11539958  0.31238714     0.36100
C521        C  0.81944696  0.15398664  0.32284357    -0.20000
C522        C  0.85660100  0.18077821  0.31047445    -0.25200
C523        C  0.88066124  0.16981463  0.29021233     0.27400
H524        H  0.82041760  0.07509476  0.28482746     0.13200
N525        N  0.76822114  0.08707839  0.32437022    -0.82500
H526        H  0.86741102  0.21055074  0.31709391     0.18000
N527        N  0.91839689  0.19768825  0.27843855    -0.81100
H528        H  0.76626937  0.08580010  0.36309783     0.33700
H529        H  0.76262527  0.06042447  0.31285479     0.38200
H530        H  0.91735788  0.21666676  0.25295086     0.34600
H531        H  0.93163839  0.21256553  0.31090205     0.30300
H532        H  0.92609335  0.12185179  0.37317702     0.33600
H533        H  0.95700292  0.16328477  0.34634560     0.30300
H534        H  0.82543745  0.04261617  0.89099564     0.38200
H535        H  0.81673876  0.04025844  0.82905131     0.33700
C536        C  0.98796324  0.45724665  0.20875493    -0.20100
C537        C  0.97954981  0.45796791  0.15706802     0.36200
C538        C  0.95070622  0.42535404  0.13311622    -0.26000
C539        C  0.92777774  0.39178862  0.15923071     0.02600
C540        C  0.93443923  0.39139058  0.21095821     0.27400
C541        C  0.96371470  0.42343201  0.23456411    -0.25200
N542        N  0.99835520  0.49208838  0.12873824    -0.82600
H543        H  0.94554501  0.42666206  0.09368803     0.13200
C544        C  0.89726143  0.35768465  0.13213882     0.02600
N545        N  0.91079309  0.35939954  0.24121606    -0.81100
H546        H  0.96716537  0.42205821  0.27436843     0.18000
C547        C  0.89921640  0.32444752  0.13021590    -0.26000
C548        C  0.87230861  0.29245687  0.10368617     0.36100
C549        C  0.84230003  0.29290951  0.07765525    -0.20000
C550        C  0.83971077  0.32587419  0.08034538    -0.25200
C551        C  0.86691712  0.35810914  0.10697127     0.27400
H552        H  0.92248125  0.32354433  0.14837964     0.13200
N553        N  0.85505403  0.27719388  0.34172803    -0.82500
H554        H  0.81748292  0.32728057  0.05994152     0.18000
N555        N  0.86382508  0.39140874  0.10795401    -0.81100
H556        H  0.87999043  0.30014222  0.32904390     0.33700
H557        H  0.83319555  0.27737973  0.32149993     0.38200
H558        H  0.86410753  0.40032676  0.07129257     0.33600
H559        H  0.83785121  0.38418431  0.12295751     0.30300
H560        H  0.88304356  0.35318398  0.23605863     0.33600
H561        H  0.91289414  0.33624167  0.22992929     0.30300
H562        H  0.01259288  0.48784931  0.10020110     0.38200
H563        H  0.97830022  0.49784307  0.11303590     0.33700
C564        C  0.69657866  0.13466558  0.37042372    -0.20100
C565        C  0.67923332  0.09981594  0.39618413     0.36200
C566        C  0.64323620  0.07073728  0.38102881    -0.26000
C567        C  0.62424657  0.07556107  0.34016796     0.02600
C568        C  0.64043153  0.11123545  0.31651438     0.27400
C569        C  0.67631108  0.14043376  0.33201560    -0.25200
N570        N  0.69938756  0.09332908  0.43567810    -0.82600
H571        H  0.63090568  0.04342256  0.39921759     0.13200
C572        C  0.59094879  0.04181076  0.31749124     0.02600
N573        N  0.62116456  0.11707618  0.27521948    -0.81100
H574        H  0.68978057  0.16674034  0.31137475     0.18000
C575        C  0.55417624  0.03251881  0.32859648    -0.26000
C576        C  0.52275334  0.00230357  0.30449381     0.36100
C577        C  0.52744589  0.98025425  0.26793373    -0.20000
C578        C  0.56506753  0.99054499  0.25730660    -0.25200
C579        C  0.59606707  0.01991177  0.28196518     0.27400
H580        H  0.54973872  0.04901223  0.35582757     0.13200
N581        N  0.48601283  0.99488047  0.31630855    -0.82500
H582        H  0.57132165  0.97731024  0.22743216     0.18000
N583        N  0.63283974  0.02776730  0.26879684    -0.81100
H584        H  0.48448599  0.01892567  0.30718308     0.33700
H585        H  0.48247536  0.99053589  0.35462953     0.38200
H586        H  0.64795713  0.05551425  0.25566732     0.33600
H587        H  0.64639466  0.02542354  0.30077582     0.30300
H588        H  0.63662662  0.14478353  0.26201433     0.33600
H589        H  0.61959438  0.09955617  0.24624529     0.30300
H590        H  0.69726229  0.16947062  0.11480506     0.38200
H591        H  0.71307130  0.14118604  0.09419634     0.33700
C592        C  0.79482172  0.21512208  0.39462555     0.80000
N593        N  0.81403961  0.20132019  0.37088734    -0.78300
C594        C  0.79655565  0.16738965  0.34818053     0.82500
N595        N  0.79869729  0.20591770  0.64709916    -0.78200
C596        C  0.78050201  0.21637009  0.67888578     0.82600
N597        N  0.80065914  0.24757432  0.70819571    -0.79900
C598        C  0.22820699  0.45123346  0.68127412     0.80000
N599        N  0.25919819  0.46341768  0.71227300    -0.78300
C600        C  0.28319834  0.45767711  0.39742482     0.82500
N601        N  0.26694327  0.41993225  0.39009901    -0.78200
C602        C  0.24555987  0.41249548  0.63876023     0.82600
N603        N  0.22193700  0.42587565  0.64528812    -0.79900
C604        C  0.48934591  0.19131122  0.35096224     0.80000
N605        N  0.46104872  0.17172115  0.31751490    -0.78300
C606        C  0.44613421  0.18885301  0.28957397     0.82500
N607        N  0.43053533  0.22512553  0.62859525    -0.78200
C608        C  0.45969034  0.24438218  0.66074142     0.82600
N609        N  0.50246895  0.22923677  0.35695436    -0.79900
C610        C  0.28640138  0.79878938  0.69957301     0.80000
N611        N  0.22497556  0.70165403  0.36535730    -0.78300
C612        C  0.18641001  0.68348660  0.36367260     0.82500
N613        N  0.16914342  0.69699978  0.33283264    -0.78200
C614        C  0.18915544  0.72772155  0.30368226     0.82600
N615        N  0.26511869  0.81334573  0.68227946    -0.79900
C616        C  0.80880806  0.52591858  0.69378721     0.80000
N617        N  0.77651117  0.51196254  0.72068502    -0.78300
C618        C  0.76522341  0.55533881  0.38474108     0.82500
N619        N  0.77495730  0.58318404  0.35020571    -0.78200
C620        C  0.80413153  0.57955782  0.67205435     0.82600
N621        N  0.82199150  0.55939578  0.66954057    -0.79900
C622        C  0.56444073  0.79597587  0.39731076     0.80000
N623        N  0.59773083  0.81360600  0.37353296    -0.78300
C624        C  0.60901664  0.79420675  0.34523261     0.82500
N625        N  0.58191770  0.76306207  0.70984244    -0.78200
C626        C  0.54636668  0.74219448  0.72608501     0.82600
N627        N  0.54198837  0.75739891  0.39301987    -0.79900
O628        O  0.98153581  0.99347829  0.26135119    -0.88500
C629        C  0.94325617  0.93397622  0.46171234     0.87500
Mg630      Mg  0.02451990  0.04931889  0.27829768     1.58100
O631        O  0.00674737  0.91368470  0.22250902    -0.88300
O632        O  0.96023652  0.93642088  0.29112515    -0.75600
C633        C  0.15872601  0.06732744  0.48303348     0.92500
O634        O  0.97007013  0.02243037  0.43568338    -0.75400
O635        O  0.14338220  0.08684066  0.47172643    -0.82900
Mg636      Mg  0.92591564  0.99182318  0.49677819     1.58000
C637        C  0.09823999  0.90037459  0.19637500     0.92500
O638        O  0.89584338  0.94232423  0.22723561    -0.81200
H639        H  0.00262880  0.88946485  0.28889753    -0.06500
C640        C  0.05755736  0.98275829  0.44831243     0.87400
O641        O  0.06103283  0.02760550  0.31464210    -0.75700
O642        O  0.93967776  0.94714349  0.50100945    -0.88500
O643        O  0.06420030  0.88817592  0.18329268    -0.81300
C644        C  0.93102790  0.84246822  0.53678903     0.92600
C645        C  0.87548011  0.90684823  0.23254602     0.92400
Mg646      Mg  0.10495138  0.97859106  0.23019426     1.58000
O647        O  0.14025401  0.03473525  0.50258248    -0.81200
O648        O  0.05499318  0.93190288  0.27274017    -0.75400
O649        O  0.91533605  0.86182883  0.54625071    -0.81300
O650        O  0.91211981  0.03959401  0.49519642    -0.83000
O651        O  0.12112804  0.11035380  0.26638200    -0.81300
C652        C  0.02049575  0.91045696  0.26218445     0.86900
O653        O  0.09074942  0.01954662  0.25394568    -0.88400
O654        O  0.05193141  0.97401936  0.49273246    -0.88500
O655        O  0.06685041  0.01575383  0.43311486    -0.75600
Mg656      Mg  0.94922163  0.89965801  0.22238033     1.58000
O657        O  0.96537913  0.85814287  0.52534737    -0.83000
H658        H  0.97242853  0.98175676  0.33383751    -0.06700
O659        O  0.02426749  0.05685191  0.47373982    -0.88200
H660        H  0.01865880  0.05628999  0.39965699    -0.06500
H661        H  0.09970901  0.01118928  0.32509843    -0.06700
C662        C  0.00514005  0.04597215  0.43501473     0.86800
C663        C  0.97106887  0.97115914  0.29680583     0.87400
C664        C  0.08493585  0.01949860  0.29880103     0.87500
H665        H  0.05332336  0.96145980  0.42153527    -0.06700
O666        O  0.96729345  0.92335322  0.45731336    -0.75700
Mg667      Mg  0.08210249  0.07130917  0.47192120     1.58000
H668        H  0.92608221  0.93229189  0.42981598    -0.06700
C669        C  0.93351326  0.07515586  0.49073820     0.92500
O670        O  0.07026597  0.10791073  0.29725887    -0.82900
C671        C  0.10564659  0.12456271  0.29229204     0.92500
O672        O  0.88842791  0.88488662  0.22545460    -0.82900
Mg673      Mg  0.00979007  0.91752833  0.50865616     1.58200
O674        O  0.96900358  0.08972132  0.48996964    -0.81300
O675        O  0.11985620  0.93477272  0.20787413    -0.83000
C676        C  0.99666214  0.45542103  0.56767965    -0.02700
C677        C  0.53309658  0.00418920  0.56031762    -0.02700
C678        C  0.52719928  0.51137334  0.56232917    -0.02700
C679        C  0.64703829  0.81309880  0.32436717    -0.20100
C680        C  0.65224991  0.80912205  0.65679323     0.36200
C681        C  0.68855952  0.83076439  0.63841213    -0.26000
C682        C  0.72172336  0.84435000  0.29368328     0.02600
C683        C  0.71370515  0.85840136  0.33640091     0.27400
C684        C  0.67635603  0.84285271  0.35106174    -0.25200
N685        N  0.62728860  0.77345698  0.63416133    -0.82600
H686        H  0.69744526  0.81973284  0.60845446     0.13200
C687        C  0.76074936  0.85968654  0.27745046     0.02600
N688        N  0.74362358  0.88771235  0.36533723    -0.81100
H689        H  0.67033253  0.85291499  0.38473009     0.18000
C690        C  0.78156289  0.89777821  0.26409492    -0.26000
C691        C  0.81875463  0.91367054  0.24900982     0.36100
C692        C  0.83578955  0.89100203  0.24721036    -0.20000
C693        C  0.81452421  0.85257143  0.26012861    -0.25200
C694        C  0.77965787  0.87977553  0.66354816     0.27400
H695        H  0.76875233  0.91532487  0.26522951     0.13200
N696        N  0.83878744  0.95277794  0.23521020    -0.82500
H697        H  0.83561679  0.88904506  0.66003904     0.18000
N698        N  0.77107377  0.85741169  0.70791728    -0.81100
H699        H  0.82407350  0.95694046  0.20601256     0.33700
H700        H  0.83919266  0.96867997  0.26555005     0.38200
H701        H  0.77493406  0.83451747  0.70098607     0.33600
H702        H  0.79028812  0.87388324  0.73566765     0.30300
H703        H  0.73295778  0.89490669  0.39558754     0.33600
H704        H  0.75998200  0.87683758  0.38007214     0.30300
H705        H  0.62440980  0.77808111  0.59642892     0.38200
H706        H  0.63957750  0.75648764  0.63710676     0.33700
C707        C  0.54229491  0.97612753  0.53222638    -0.20100
C708        C  0.53353593  0.96542101  0.48143649     0.36200
C709        C  0.53587400  0.93448792  0.46266623    -0.26000
C710        C  0.54516711  0.91213634  0.49322906     0.02600
C711        C  0.55356957  0.92213703  0.54373208     0.27400
C712        C  0.55271461  0.95380519  0.56198415    -0.25200
N713        N  0.52036752  0.98425013  0.44884924    -0.82600
H714        H  0.53004310  0.92765963  0.42367521     0.13200
C715        C  0.54730200  0.87925967  0.47197202     0.02600
N716        N  0.56185333  0.89936070  0.57698754    -0.81100
H717        H  0.55883584  0.96026813  0.60099092     0.18000
C718        C  0.57996121  0.87710392  0.48024945    -0.26000
C719        C  0.58420709  0.84794439  0.45992132     0.36100
C720        C  0.55559713  0.82026600  0.42908934    -0.20000
C721        C  0.52219524  0.82134049  0.42213185    -0.25200
C722        C  0.51766045  0.85036413  0.44351493     0.27400
H723        H  0.60285556  0.89894412  0.50186445     0.13200
N724        N  0.61817146  0.84687067  0.46943065    -0.82500
H725        H  0.48454770  0.79784664  0.74930658     0.18000
N726        N  0.48325223  0.85083258  0.43594802    -0.81100
H727        H  0.63660058  0.86923867  0.49231575     0.33700
H728        H  0.61097550  0.82203105  0.48915433     0.38200
H729        H  0.44417527  0.82125114  0.75590040     0.33600
H730        H  0.47092046  0.84725993  0.47064738     0.30300
H731        H  0.56742934  0.91039685  0.61297208     0.33600
H732        H  0.53777162  0.87271571  0.57900054     0.30300
H733        H  0.49280915  0.96506708  0.43812502     0.38200
H734        H  0.53719763  0.99312324  0.41745169     0.33700
C735        C  0.52742014  0.54090589  0.60047026    -0.20100
C736        C  0.49358491  0.53507078  0.62271327     0.36200
C737        C  0.49226971  0.56464248  0.64782453    -0.26000
C738        C  0.52384646  0.60083002  0.65189192     0.02600
C739        C  0.55785012  0.60654299  0.63263706     0.27400
C740        C  0.55943129  0.57723728  0.60746486    -0.25200
N741        N  0.45963205  0.49949732  0.61778622    -0.82600
H742        H  0.46584229  0.55957974  0.66254213     0.13200
C743        C  0.52085951  0.63338948  0.67266496     0.02600
N744        N  0.59097067  0.64282977  0.63722853    -0.81100
H745        H  0.58583892  0.58446196  0.59092610     0.18000
C746        C  0.52326810  0.63991267  0.72426235    -0.26000
C747        C  0.52655933  0.67360523  0.74368783     0.36100
C748        C  0.52676193  0.70130329  0.71150889    -0.20000
C749        C  0.52141942  0.69317059  0.66028651    -0.25200
C750        C  0.51857179  0.66000791  0.64077805     0.27400
H751        H  0.52471809  0.61979560  0.74947814     0.13200
N752        N  0.53192975  0.68058341  0.79597447    -0.82500
H753        H  0.52253525  0.71433072  0.63459964     0.18000
N754        N  0.51477579  0.65475222  0.58801139    -0.81100
H755        H  0.55560690  0.67912211  0.80734270     0.33700
H756        H  0.50865275  0.65895104  0.81384731     0.38200
H757        H  0.53782683  0.65337827  0.57516927     0.33600
H758        H  0.49052321  0.62898307  0.58050690     0.30300
H759        H  0.61143852  0.63928915  0.65614860     0.33600
H760        H  0.60069835  0.65285888  0.60152374     0.30300
H761        H  0.45014261  0.48902722  0.65337767     0.38200
H762        H  0.43944077  0.50410638  0.60000865     0.33700
C763        C  0.81856353  0.61580086  0.64463919    -0.20100
C764        C  0.81738618  0.65732652  0.29463802     0.36200
C765        C  0.82772487  0.67913259  0.63526542    -0.26000
C766        C  0.84845721  0.68498050  0.59206046     0.02600
C767        C  0.85349734  0.65558039  0.57416968     0.27400
C768        C  0.83871929  0.62141514  0.60080349    -0.25200
N769        N  0.80446568  0.66142862  0.34188134    -0.82600
H770        H  0.83774549  0.71512371  0.27444338     0.13200
C771        C  0.86826372  0.72340451  0.56976048     0.02600
N772        N  0.87388047  0.66071509  0.52928653    -0.81100
H773        H  0.84287248  0.59901574  0.58712298     0.18000
C774        C  0.90694416  0.73215531  0.17233160    -0.26000
C775        C  0.93123026  0.76878590  0.15451323     0.36100
C776        C  0.90953777  0.80067985  0.54285521    -0.20000
C777        C  0.87008027  0.78148566  0.54329977    -0.25200
C778        C  0.84924976  0.74295685  0.55628646     0.27400
H779        H  0.91781524  0.71314411  0.17825991     0.13200
N780        N  0.96887222  0.77924652  0.14204353    -0.82500
H781        H  0.85547526  0.79676431  0.53465022     0.18000
N782        N  0.80896036  0.72376127  0.55683800    -0.81100
H783        H  0.96762675  0.76116649  0.11404693     0.33700
H784        H  0.98179840  0.77499696  0.17334763     0.38200
H785        H  0.79928417  0.74208694  0.54610542     0.33600
H786        H  0.79897721  0.70246612  0.53006624     0.30300
H787        H  0.87530344  0.63652452  0.52134805     0.33600
H788        H  0.85866853  0.66413188  0.50009842     0.30300
H789        H  0.78431260  0.66949044  0.33557821     0.38200
H790        H  0.82711062  0.68321148  0.36115284     0.33700
C791        C  0.56704376  0.52595524  0.53815681    -0.20100
C792        C  0.59796749  0.52916974  0.56716333     0.36200
C793        C  0.63123923  0.53512884  0.54445219    -0.26000
C794        C  0.63553924  0.53840075  0.49264306     0.02600
C795        C  0.60603565  0.53738820  0.46369834     0.27400
C796        C  0.57254694  0.53092588  0.48609374    -0.25200
N797        N  0.59514168  0.52473920  0.62005420    -0.82600
H798        H  0.65336214  0.53576045  0.56765516     0.13200
C799        C  0.66979537  0.54091736  0.46879233     0.02600
N800        N  0.60982265  0.54277888  0.41097217    -0.81100
H801        H  0.55024797  0.52782026  0.46134223     0.18000
C802        C  0.66515692  0.51573126  0.43040348    -0.26000
C803        C  0.69597737  0.51853589  0.40478173     0.36100
C804        C  0.73297744  0.54660511  0.41778412    -0.20000
C805        C  0.73790921  0.57103954  0.45718855    -0.25200
C806        C  0.70691706  0.56829091  0.48286038     0.27400
H807        H  0.63714147  0.49402261  0.41943047     0.13200
N808        N  0.68880958  0.49332085  0.36430928    -0.82500
H809        H  0.74464408  0.57538955  0.78374855     0.18000
N810        N  0.71333392  0.59443933  0.52182901    -0.81100
H811        H  0.69961012  0.50933360  0.33198093     0.33700
H812        H  0.70313857  0.47866380  0.37159894     0.38200
H813        H  0.70439651  0.57742500  0.85736665     0.33600
H814        H  0.72823775  0.62175738  0.50717334     0.30300
H815        H  0.58795641  0.51892398  0.39376246     0.33600
H816        H  0.60667818  0.56593030  0.40157448     0.30300
H817        H  0.59885675  0.50200660  0.62991838     0.38200
H818        H  0.61704613  0.54909133  0.63629342     0.33700
C819        C  0.97081958  0.46650954  0.59731432    -0.20100
C820        C  0.94645069  0.44258950  0.63521970     0.36200
C821        C  0.91911541  0.44953578  0.65577196    -0.26000
C822        C  0.91459019  0.47970487  0.63941093     0.02600
C823        C  0.93864787  0.50385833  0.60264719     0.27400
C824        C  0.96585348  0.49711410  0.58195581    -0.25200
N825        N  0.94874913  0.41052450  0.65239967    -0.82600
H826        H  0.90053844  0.43046906  0.68367583     0.13200
C827        C  0.88360313  0.48508697  0.65858624     0.02600
N828        N  0.93474757  0.53491239  0.58493207    -0.81100
H829        H  0.98133286  0.51510641  0.55131613     0.18000
C830        C  0.88878536  0.50491818  0.70302303    -0.26000
C831        C  0.86258292  0.51553494  0.71799576     0.36100
C832        C  0.83019874  0.50564433  0.68841582    -0.20000
C833        C  0.82406856  0.48400831  0.64552251    -0.25200
C834        C  0.85036238  0.47370743  0.63025851     0.27400
H835        H  0.91424573  0.51372569  0.72480019     0.13200
N836        N  0.87808719  0.57005977  0.41958174    -0.82500
H837        H  0.79975589  0.47712977  0.62212570     0.18000
N838        N  0.84380728  0.45242904  0.58541251    -0.81100
H839        H  0.90499179  0.58040251  0.43492315     0.33700
H840        H  0.85921801  0.55582195  0.44812992     0.38200
H841        H  0.81777919  0.44554488  0.56950711     0.33600
H842        H  0.86400790  0.46975977  0.55976153     0.30300
H843        H  0.96041046  0.55970942  0.59052907     0.33600
H844        H  0.92919876  0.53160520  0.54667494     0.30300
H845        H  0.95424716  0.41325529  0.69064522     0.38200
H846        H  0.92255435  0.38639341  0.64662055     0.33700
C847        C  0.17099298  0.74471771  0.27281637    -0.20100
C848        C  0.13463072  0.73823003  0.28232383     0.36200
C849        C  0.12228495  0.76115118  0.25949154    -0.26000
C850        C  0.14523584  0.79010922  0.22655816     0.02600
C851        C  0.20388375  0.86290511  0.62040642     0.27400
C852        C  0.22331765  0.84495536  0.63813948    -0.25200
N853        N  0.11071222  0.70978066  0.31679346    -0.82600
H854        H  0.09543568  0.75765594  0.26986083     0.13200
C855        C  0.13458822  0.81856483  0.21163454     0.02600
N856        N  0.22329432  0.89801064  0.59363261    -0.81100
H857        H  0.25310971  0.85815608  0.63141388     0.18000
C858        C  0.15968186  0.85669806  0.22209708    -0.26000
C859        C  0.14920422  0.88414435  0.21518426     0.36100
C860        C  0.11238129  0.87331364  0.19868517    -0.20000
C861        C  0.09323761  0.86706696  0.56802772    -0.25200
C862        C  0.11265799  0.84796795  0.58110401     0.27400
H863        H  0.18729941  0.86515880  0.23747953     0.13200
N864        N  0.17600933  0.92277540  0.22586937    -0.82500
H865        H  0.06945606  0.85393910  0.54251859     0.18000
N866        N  0.10116183  0.81138190  0.56078946    -0.81100
H867        H  0.19928674  0.93091645  0.20343417     0.33700
H868        H  0.18478220  0.92454209  0.26296391     0.38200
H869        H  0.07761805  0.80255611  0.53750565     0.33600
H870        H  0.12284311  0.81402999  0.53847644     0.30300
H871        H  0.25176209  0.90666763  0.59071508     0.33600
H872        H  0.21220956  0.89321402  0.55742778     0.30300
H873        H  0.10413214  0.72281057  0.34488115     0.38200
H874        H  0.08581360  0.69112065  0.29806727     0.33700
C875        C  0.16215724  0.65028928  0.39632172    -0.20100
C876        C  0.12879803  0.64646083  0.41623231     0.36200
C877        C  0.10368414  0.61328180  0.44154823    -0.26000
C878        C  0.11126345  0.58386909  0.44968628     0.02600
C879        C  0.14521212  0.58798203  0.43190875     0.27400
C880        C  0.17017704  0.62099073  0.40498521    -0.25200
N881        N  0.12072865  0.67671882  0.41153280    -0.82600
H882        H  0.07799977  0.61050182  0.45582778     0.13200
C883        C  0.08385667  0.55039357  0.47951681     0.02600
N884        N  0.15422798  0.55876509  0.44139160    -0.81100
H885        H  0.19559579  0.62357075  0.39010619     0.18000
C886        C  0.06438872  0.51409098  0.45878829    -0.26000
C887        C  0.03607256  0.48302540  0.48513793     0.36100
C888        C  0.02499144  0.48827659  0.53293281    -0.20000
C889        C  0.04707828  0.52456371  0.55425961    -0.25200
C890        C  0.07564940  0.55523733  0.52841450     0.27400
H891        H  0.07139365  0.50960042  0.42200882     0.13200
N892        N  0.02064716  0.44614703  0.46409989    -0.82500
H893        H  0.04188824  0.52924272  0.59192136     0.18000
N894        N  0.09673196  0.59148965  0.55196943    -0.81100
H895        H  0.04269550  0.44107293  0.45770316     0.33700
H896        H  0.00829542  0.44579520  0.42977481     0.38200
H897        H  0.08728995  0.59061107  0.58799090     0.33600
H898        H  0.12455699  0.59761457  0.55550700     0.30300
H899        H  0.17995409  0.56584162  0.42569140     0.33600
H900        H  0.15752052  0.55723658  0.47982733     0.30300
H901        H  0.09512864  0.66945381  0.42779175     0.38200
H902        H  0.14146070  0.69971156  0.43149803     0.33700
C903        C  0.49772147  0.97503621  0.59028976    -0.20100
C904        C  0.49808399  0.96582492  0.64152661     0.36200
C905        C  0.46551548  0.93612729  0.66358153    -0.26000
C906        C  0.43294509  0.91291820  0.63547163     0.02600
C907        C  0.43284930  0.92071675  0.58442603     0.27400
C908        C  0.46489136  0.95050368  0.56253287    -0.25200
N909        N  0.53219122  0.98366349  0.67029773    -0.82600
H910        H  0.46633066  0.92970641  0.70248788     0.13200
C911        C  0.39895570  0.88099823  0.65953828     0.02600
N912        N  0.39986356  0.89880324  0.55451788    -0.81100
H913        H  0.46393060  0.95494859  0.52291470     0.18000
C914        C  0.38049048  0.88893328  0.69663978    -0.26000
C915        C  0.34525418  0.86089611  0.71410919     0.36100
C916        C  0.32794400  0.82369188  0.69528674    -0.20000
C917        C  0.34791050  0.81492151  0.66134576    -0.25200
C918        C  0.38313934  0.84316518  0.64347982     0.27400
H919        H  0.39239084  0.91759277  0.71005803     0.13200
N920        N  0.32607281  0.87075427  0.74943533    -0.82500
H921        H  0.33500174  0.78676181  0.64589285     0.18000
N922        N  0.40240538  0.83351340  0.60806047    -0.81100
H923        H  0.34328221  0.88135926  0.78109409     0.33700
H924        H  0.32247097  0.89236715  0.73410562     0.38200
H925        H  0.40722699  0.81286050  0.62401817     0.33600
H926        H  0.38470337  0.82165452  0.57708487     0.30300
H927        H  0.39159875  0.91709765  0.53891445     0.33600
H928        H  0.40696197  0.88692501  0.52550995     0.30300
H929        H  0.53695693  0.96282118  0.68583417     0.38200
H930        H  0.52947222  0.99891328  0.69882060     0.33700
C931        C  0.20003779  0.08444244  0.48009121    -0.20100
C932        C  0.21727689  0.06199357  0.48383202     0.36200
C933        C  0.25527265  0.07883655  0.49832308    -0.26000
C934        C  0.27625130  0.11749420  0.50915921     0.02600
C935        C  0.28190640  0.13518909  0.20482423     0.27400
C936        C  0.24278474  0.11763150  0.19860368    -0.25200
N937        N  0.19571200  0.02197158  0.47541217    -0.82600
H938        H  0.26803202  0.06143852  0.50396720     0.13200
C939        C  0.31302293  0.13276532  0.53558478     0.02600
N940        N  0.30327120  0.17418350  0.21934930    -0.81100
H941        H  0.22921689  0.13402179  0.20492909     0.18000
C942        C  0.34504946  0.16370010  0.51568003    -0.26000
C943        C  0.37921522  0.18126908  0.54257471     0.36100
C944        C  0.38145364  0.16714285  0.58991065    -0.20000
C945        C  0.38376304  0.13188629  0.27900328    -0.25200
C946        C  0.34754603  0.11354146  0.25819691     0.27400
H947        H  0.34309808  0.17465399  0.47954348     0.13200
N948        N  0.41153803  0.21357229  0.52228101    -0.82500
H949        H  0.38909484  0.12066351  0.31294694     0.18000
N950        N  0.31854006  0.08061599  0.28208240    -0.81100
H951        H  0.43196421  0.20599284  0.51679938     0.33700
H952        H  0.40514183  0.22053564  0.48731730     0.38200
H953        H  0.32664602  0.06014909  0.28338803     0.33600
H954        H  0.31648738  0.08771551  0.31860375     0.30300
H955        H  0.28594887  0.18598963  0.22151075     0.33600
H956        H  0.31395016  0.17514961  0.25523483     0.30300
H957        H  0.18692406  0.01793635  0.43815672     0.38200
H958        H  0.21242955  0.00957825  0.48044820     0.33700
C959        C  0.52568940  0.03150639  0.52551141    -0.20100
C960        C  0.49445909  0.03783365  0.52858390     0.36200
C961        C  0.49317227  0.06616926  0.49962275    -0.26000
C962        C  0.52257176  0.09035639  0.46886928     0.02600
C963        C  0.55411307  0.08569271  0.46622176     0.27400
C964        C  0.55529428  0.05669259  0.49408947    -0.25200
N965        N  0.46464303  0.01771790  0.56282105    -0.82600
H966        H  0.46897224  0.06988085  0.50213871     0.13200
C967        C  0.51859934  0.11894464  0.43788849     0.02600
N968        N  0.58549535  0.11131991  0.43665393    -0.81100
H969        H  0.58005308  0.05395152  0.49188538     0.18000
C970        C  0.52481467  0.15313666  0.45841992    -0.26000
C971        C  0.51718271  0.17843198  0.43066883     0.36100
C972        C  0.50321119  0.16937948  0.38117125    -0.20000
C973        C  0.49831212  0.13561018  0.36079708    -0.25200
C974        C  0.50546378  0.11056228  0.38858705     0.27400
H975        H  0.53458289  0.15954567  0.49664774     0.13200
N976        N  0.52227811  0.21231869  0.45327633    -0.82500
H977        H  0.48778967  0.12783871  0.32302789     0.18000
N978        N  0.49823909  0.07583451  0.36685469    -0.81100
H979        H  0.53317338  0.21502035  0.48938989     0.33700
H980        H  0.49576993  0.20957326  0.45659690     0.38200
H981        H  0.46991358  0.06081103  0.35620555     0.33600
H982        H  0.51428335  0.08246336  0.33479185     0.30300
H983        H  0.60690149  0.10468506  0.43930452     0.33600
H984        H  0.57667603  0.10773521  0.39945717     0.30300
H985        H  0.43941095  0.00399943  0.54251542     0.38200
H986        H  0.46324146  0.03717274  0.58617543     0.33700
C987        C  0.51768928  0.47219158  0.58694010    -0.20100
C988        C  0.51900739  0.44375643  0.55815170     0.36200
C989        C  0.51258469  0.40962682  0.57985517    -0.26000
C990        C  0.50276262  0.40101561  0.62965476     0.02600
C991        C  0.50007563  0.42801177  0.65878377     0.27400
C992        C  0.50911888  0.46365796  0.63797985    -0.25200
N993        N  0.52615639  0.44895901  0.50595915    -0.82600
H994        H  0.51396497  0.38887422  0.55674669     0.13200
C995        C  0.49349991  0.36261485  0.64875097     0.02600
N996        N  0.48744745  0.41887911  0.70911490    -0.81100
H997        H  0.50916094  0.48443076  0.66226286     0.18000
C998        C  0.52084946  0.35145848  0.64857037    -0.26000
C999        C  0.51126975  0.31344087  0.65712109     0.36100
C1000       C  0.47369630  0.28576754  0.66586356    -0.20000
C1001       C  0.44690966  0.29748951  0.66885210    -0.25200
C1002       C  0.45638482  0.33527933  0.66034086     0.27400
H1003       H  0.54950527  0.37205220  0.63944160     0.13200
N1004       N  0.53929462  0.30270534  0.65357052    -0.82500
H1005       H  0.44051723  0.27197789  0.34968561     0.18000
N1006       N  0.42763898  0.34524205  0.66027297    -0.81100
H1007       H  0.55100420  0.31033344  0.61826812     0.33700
H1008       H  0.56043558  0.31826297  0.67979811     0.38200
H1009       H  0.42134826  0.31857534  0.31030002     0.33600
H1010       H  0.41517615  0.33850405  0.69517162     0.30300
H1011       H  0.50687168  0.41455422  0.72944136     0.33600
H1012       H  0.48641307  0.44132733  0.72554030     0.30300
H1013       H  0.54997408  0.44690843  0.49908640     0.38200
H1014       H  0.50339590  0.42699348  0.48710904     0.33700
C1015       C  0.21286362  0.35751114  0.37098435    -0.20100
C1016       C  0.21400607  0.37465628  0.56203083     0.36200
C1017       C  0.16685075  0.29905345  0.33097302    -0.26000
C1018       C  0.18222389  0.27940310  0.35547973     0.02600
C1019       C  0.21318896  0.29870163  0.38798528     0.27400
C1020       C  0.22824779  0.33764361  0.39550257    -0.25200
N1021       N  0.21443626  0.40647315  0.53847462    -0.82600
H1022       H  0.17834170  0.33543239  0.50573968     0.13200
C1023       C  0.16536552  0.23856622  0.34609260     0.02600
N1024       N  0.22917591  0.27866721  0.41295769    -0.81100
H1025       H  0.25190626  0.35246346  0.42084496     0.18000
C1026       C  0.17962819  0.24532470  0.53276290    -0.26000
C1027       C  0.15544609  0.20719186  0.52191577     0.36100
C1028       C  0.12876718  0.16255533  0.31499512    -0.20000
C1029       C  0.11213879  0.17492105  0.34974885    -0.25200
C1030       C  0.13002106  0.21272228  0.36518729     0.27400
H1031       H  0.20967584  0.25635363  0.53305186     0.13200
N1032       N  0.17122148  0.18388896  0.51103318    -0.82500
H1033       H  0.08439866  0.15544431  0.36342794     0.18000
N1034       N  0.11194104  0.22542225  0.39870343    -0.81100
H1035       H  0.18811886  0.18498686  0.54125264     0.33700
H1036       H  0.18833458  0.19522351  0.48007207     0.38200
H1037       H  0.08618019  0.20286443  0.40987675     0.33600
H1038       H  0.12887514  0.23544952  0.43064987     0.30300
H1039       H  0.25149976  0.29683840  0.43619405     0.33600
H1040       H  0.20862892  0.25841074  0.43590946     0.30300
H1041       H  0.18671229  0.40056684  0.53436856     0.38200
H1042       H  0.22546549  0.40947477  0.50296285     0.33700
C1043       C  0.32392405  0.47825471  0.41118102    -0.20100
C1044       C  0.35056007  0.47833786  0.37858864     0.36200
C1045       C  0.38660241  0.48735938  0.39679020    -0.26000
C1046       C  0.39641153  0.49569475  0.44717862     0.02600
C1047       C  0.37036191  0.49699413  0.47910070     0.27400
C1048       C  0.33463702  0.48867725  0.46091919    -0.25200
N1049       N  0.34014714  0.46738080  0.32761288    -0.82600
H1050       H  0.40640494  0.48605981  0.37219049     0.13200
C1051       C  0.43176964  0.49848189  0.46787061     0.02600
N1052       N  0.37946172  0.50475524  0.53081446    -0.81100
H1053       H  0.31422951  0.48754996  0.48669669     0.18000
C1054       C  0.46508776  0.53332555  0.47092268    -0.26000
C1055       C  0.49676644  0.53729839  0.49776553     0.36100
C1056       C  0.49584821  0.50577195  0.52266175    -0.20000
C1057       C  0.46249765  0.47037496  0.51603181    -0.25200
C1058       C  0.43113469  0.46669102  0.48920323     0.27400
H1059       H  0.46605411  0.55803580  0.45421943     0.13200
N1060       N  0.52936422  0.57402901  0.50157227    -0.82500
H1061       H  0.45882382  0.44517893  0.53430614     0.18000
N1062       N  0.39777745  0.43049883  0.48546340    -0.81100
H1063       H  0.52146794  0.59231290  0.51690238     0.33700
H1064       H  0.53894179  0.58348906  0.46571557     0.38200
H1065       H  0.40470452  0.41200163  0.46852177     0.33600
H1066       H  0.38878611  0.42057728  0.52143803     0.30300
H1067       H  0.37702051  0.52816727  0.53995668     0.33600
H1068       H  0.35959163  0.48157944  0.55102348     0.30300
H1069       H  0.36252527  0.46837263  0.30862673     0.38200
H1070       H  0.33475799  0.48739434  0.31077638     0.33700
C1071       C  0.19806363  0.46102585  0.68690355    -0.20100
C1072       C  0.16402497  0.43447691  0.70928695     0.36200
C1073       C  0.13026059  0.43408753  0.69676556    -0.26000
C1074       C  0.12957049  0.45965251  0.66202614     0.02600
C1075       C  0.16397996  0.48810450  0.64251146     0.27400
C1076       C  0.19772482  0.48832857  0.65487866    -0.25200
N1077       N  0.16046472  0.43169934  0.44716454    -0.82600
H1078       H  0.10401190  0.41238596  0.71204327     0.13200
C1079       C  0.09259939  0.45402543  0.64256934     0.02600
N1080       N  0.16440651  0.51604771  0.60910517    -0.81100
H1081       H  0.22340369  0.50812132  0.63644316     0.18000
C1082       C  0.07393645  0.46973794  0.66705012    -0.26000
C1083       C  0.04088415  0.46772283  0.64683614     0.36100
C1084       C  0.02495056  0.44880320  0.60088470    -0.20000
C1085       C  0.04357137  0.43171501  0.57827238    -0.25200
C1086       C  0.07627721  0.43378009  0.59839716     0.27400
H1087       H  0.08607991  0.48517443  0.70114742     0.13200
N1088       N  0.02483828  0.48644466  0.67253819    -0.82500
H1089       H  0.03350679  0.41762509  0.54299219     0.18000
N1090       N  0.09280411  0.41550908  0.57243188    -0.81100
H1091       H  0.04562744  0.51449489  0.67872772     0.33700
H1092       H  0.01561966  0.47304152  0.70682527     0.38200
H1093       H  0.12003173  0.43571345  0.56248688     0.33600
H1094       H  0.09439470  0.39611835  0.59658357     0.30300
H1095       H  0.19184943  0.53521021  0.59854070     0.33600
H1096       H  0.14970279  0.50244272  0.57668171     0.30300
H1097       H  0.15536743  0.44441419  0.47713276     0.38200
H1098       H  0.13681057  0.40506967  0.44176506     0.33700
C1099       C  0.91786745  0.10116017  0.49178707    -0.20100
C1100       C  0.90800300  0.08226060  0.20873866     0.36200
C1101       C  0.88671643  0.09891926  0.22139914    -0.26000
C1102       C  0.89419138  0.15199776  0.52167054     0.02600
C1103       C  0.93155740  0.16593072  0.50731540     0.27400
C1104       C  0.94297725  0.14047921  0.49223387    -0.25200
N1105       N  0.90026434  0.06204964  0.16294351    -0.82600
H1106       H  0.86420957  0.09581910  0.19672792     0.13200
C1107       C  0.88287028  0.17609094  0.54869904     0.02600
N1108       N  0.95805107  0.20569825  0.51014802    -0.81100
H1109       H  0.97225152  0.15138295  0.48386691     0.18000
C1110       C  0.90072483  0.19216483  0.59422806    -0.26000
C1111       C  0.88709435  0.20991167  0.62502166     0.36100
C1112       C  0.85513540  0.21194067  0.61007790    -0.20000
C1113       C  0.83840682  0.19745556  0.56343439    -0.25200
C1114       C  0.85206092  0.17970119  0.53271136     0.27400
H1115       H  0.92422287  0.18920017  0.60717631     0.13200
N1116       N  0.90440138  0.22366786  0.67267855    -0.82500
H1117       H  0.81407182  0.19919747  0.55119595     0.18000
N1118       N  0.83443940  0.16510373  0.48544300    -0.81100
H1119       H  0.93260788  0.24366550  0.66717937     0.33700
H1120       H  0.90332224  0.20114459  0.69287945     0.38200
H1121       H  0.80614426  0.14557694  0.49129830     0.34600
H1122       H  0.83585084  0.18747666  0.46454849     0.30300
H1123       H  0.98451419  0.21140427  0.49876354     0.33600
H1124       H  0.94915463  0.21933674  0.48485041     0.30300
H1125       H  0.87225293  0.04035844  0.16297315     0.38200
H1126       H  0.90344880  0.08057200  0.13385655     0.33700
C1127       C  0.96656217  0.41917010  0.53875487    -0.20100
C1128       C  0.94260446  0.42157602  0.50160830     0.36200
C1129       C  0.91229727  0.38873838  0.48072354    -0.26000
C1130       C  0.90405519  0.35251547  0.49587334     0.02600
C1131       C  0.92785194  0.34951563  0.53202806     0.27400
C1132       C  0.95791259  0.38224557  0.55337703    -0.25200
N1133       N  0.94876219  0.45752987  0.48476383    -0.82600
H1134       H  0.89488940  0.39165306  0.45226115     0.13200
C1135       C  0.87295630  0.31865318  0.46987671     0.02600
N1136       N  0.92285224  0.31356484  0.54701941    -0.81100
H1137       H  0.97361543  0.37813512  0.58301884     0.18000
C1138       C  0.87680552  0.31362750  0.41939751    -0.26000
C1139       C  0.84972030  0.28154228  0.39337128     0.36100
C1140       C  0.81775151  0.25313337  0.41824385    -0.20000
C1141       C  0.81260590  0.25924200  0.46803866    -0.25200
C1142       C  0.83975272  0.29184409  0.49381725     0.27400
H1143       H  0.90165456  0.33455773  0.40039489     0.13200
N1144       N  0.90970738  0.28152466  0.75013652    -0.82500
H1145       H  0.78840241  0.23791802  0.48770465     0.18000
N1146       N  0.83342178  0.29764878  0.54420812    -0.81100
H1147       H  0.91473721  0.27424730  0.78570548     0.33700
H1148       H  0.93497728  0.29400897  0.73096779     0.38200
H1149       H  0.80855790  0.29863640  0.54495055     0.33600
H1150       H  0.82930499  0.27419228  0.56510010     0.30300
H1151       H  0.89658251  0.29769160  0.56310052     0.33600
H1152       H  0.92369280  0.29943536  0.51542652     0.30300
H1153       H  0.95297965  0.45924800  0.44648676     0.38200
H1154       H  0.92439268  0.45872368  0.49095761     0.33700
C1155       C  0.73905754  0.19202618  0.68051155    -0.20100
C1156       C  0.72284659  0.15941046  0.71086829     0.36200
C1157       C  0.68676973  0.12899401  0.69887421    -0.26000
C1158       C  0.66666801  0.13051061  0.65693503     0.02600
C1159       C  0.68166673  0.16423000  0.62887118     0.27400
C1160       C  0.71766954  0.19458186  0.64092856    -0.25200
N1161       N  0.74429896  0.15620934  0.75147335    -0.82600
H1162       H  0.67520927  0.10318096  0.72054167     0.13200
C1163       C  0.63257255  0.09549210  0.63873108     0.02600
N1164       N  0.66108744  0.16676125  0.58660527    -0.81100
H1165       H  0.73034913  0.21917463  0.61688217     0.18000
C1166       C  0.59672366  0.09009693  0.64639743    -0.26000
C1167       C  0.56454109  0.05961432  0.62441296     0.36100
C1168       C  0.56749541  0.03335922  0.59313713    -0.20000
C1169       C  0.60415681  0.03924500  0.58651708    -0.25200
C1170       C  0.63599449  0.06918032  0.60925431     0.27400
H1171       H  0.59375430  0.11038342  0.66842190     0.13200
N1172       N  0.52879400  0.05606311  0.63304622    -0.82500
H1173       H  0.60917729  0.02205986  0.56123750     0.18000
N1174       N  0.67193667  0.07316512  0.59994001    -0.81100
H1175       H  0.52994889  0.08121857  0.62198837     0.33700
H1176       H  0.52405586  0.05276390  0.67117828     0.38200
H1177       H  0.68887867  0.09947073  0.58335128     0.33600
H1178       H  0.68422534  0.07240624  0.63399629     0.30300
H1179       H  0.67582343  0.19343024  0.57003851     0.33600
H1180       H  0.65908992  0.14732616  0.56016033     0.30300
H1181       H  0.70372162  0.11226224  0.46419926     0.38200
H1182       H  0.68314492  0.06622284  0.45050395     0.33700
C1183       C  0.83909424  0.26764246  0.70544780     0.80000
N1184       N  0.85652133  0.25606237  0.67343170    -0.78300
C1185       C  0.83651372  0.22539342  0.64411406     0.82500
N1186       N  0.77975454  0.20657838  0.97315485    -0.78200
C1187       C  0.76035907  0.21474235  0.00614153     0.82600
N1188       N  0.77984053  0.24277870  0.04067813    -0.79900
C1189       C  0.21968564  0.46007782  0.06724944     0.80000
N1190       N  0.25806715  0.47725596  0.07324315    -0.78300
C1191       C  0.28387549  0.45044533  0.70497619     0.82500
N1192       N  0.27619793  0.42468544  0.66875189    -0.78200
C1193       C  0.21487379  0.40032785  0.07644423     0.82600
N1194       N  0.19885510  0.42190226  0.06926861    -0.79900
C1195       C  0.45800759  0.18670352  0.68160211     0.80000
N1196       N  0.42852082  0.16853741  0.64921303    -0.78300
C1197       C  0.41504311  0.18751321  0.62231350     0.82500
N1198       N  0.42712257  0.19801891  0.01783575    -0.78200
C1199       C  0.46364409  0.21585287  0.03202893     0.82600
N1200       N  0.47375719  0.22514571  0.68742495    -0.79900
C1201       C  0.26174200  0.79514701  0.05526561     0.80000
N1202       N  0.26907300  0.76270052  0.71876879    -0.78300
C1203       C  0.23047216  0.74204873  0.71976222     0.82500
N1204       N  0.21034619  0.75776513  0.70180754    -0.78200
C1205       C  0.22721130  0.79325661  0.68315277     0.82600
N1206       N  0.23688582  0.80688453  0.04443994    -0.79900
C1207       C  0.80429013  0.53901603  0.98879530     0.80000
N1208       N  0.77673432  0.52942903  0.02341806    -0.78300
C1209       C  0.75832403  0.53231829  0.72343490     0.82500
N1210       N  0.77258899  0.56586207  0.69911814    -0.78200
C1211       C  0.78626732  0.57938157  0.94857145     0.82600
N1212       N  0.80861887  0.56391131  0.95216320    -0.79900
C1213       C  0.55158658  0.79820514  0.76032865     0.80000
N1214       N  0.58714223  0.81777237  0.74292390    -0.78300
C1215       C  0.60241779  0.80062973  0.71749717     0.82500
N1216       N  0.56232743  0.73567611  0.97216228    -0.78200
C1217       C  0.53708911  0.71309792  0.00653266     0.82600
N1218       N  0.53049787  0.75982217  0.75130326    -0.79900
O1219       O  0.96686877  0.02096554  0.55388991    -0.88500
C1220       C  0.94795256  0.94712336  0.80457232     0.87500
Mg1221     Mg  0.00907406  0.07789739  0.53707284     1.58100
O1222       O  0.99341682  0.93769506  0.57107409    -0.88300
O1223       O  0.95252310  0.97900640  0.61297338    -0.75600
C1224       C  0.13055354  0.05960889  0.95437822     0.92500
O1225       O  0.97563904  0.03863236  0.81796087    -0.75400
O1226       O  0.11923307  0.08287487  0.94505258    -0.82900
Mg1227     Mg  0.91577599  0.99318605  0.83901913     1.58000
C1228       C  0.08646439  0.92436972  0.56753433     0.92500
O1229       O  0.87700578  0.96026909  0.55172277    -0.81200
H1230       H  0.99633255  0.93749162  0.64528532    -0.06500
C1231       C  0.05289694  0.99442470  0.86117021     0.87400
O1232       O  0.05074250  0.07285388  0.58962820    -0.75700
O1233       O  0.93135426  0.94985776  0.84057655    -0.88500
O1234       O  0.05195235  0.90631015  0.55407075    -0.81300
C1235       C  0.91797112  0.83978206  0.84535098     0.92600
C1236       C  0.86090716  0.92915288  0.57577067     0.92400
Mg1237     Mg  0.08989661  0.00431238  0.55317128     1.58000
O1238       O  0.10765892  0.02465511  0.96007047    -0.81200
O1239       O  0.04528107  0.97409932  0.61229981    -0.75400
O1240       O  0.89934381  0.85703698  0.84608769    -0.81300
O1241       O  0.89965275  0.03920682  0.83816333    -0.83000
O1242       O  0.10163228  0.12983143  0.50269628    -0.81300
C1243       C  0.01096968  0.94871104  0.61082533     0.86900
O1244       O  0.07509785  0.04675501  0.54467685    -0.88400
O1245       O  0.03384694  0.97343004  0.89526375    -0.88500
O1246       O  0.06397160  0.02950786  0.86092213    -0.75600
Mg1247     Mg  0.93592326  0.92287414  0.57433136     1.58000
O1248       O  0.95266503  0.85650778  0.85662951    -0.83000
H1249       H  0.96711901  0.03351286  0.62548283    -0.06700
O1250       O  0.00832038  0.05854842  0.88737262    -0.88200
H1251       H  0.02998642  0.08072535  0.82126814    -0.06500
H1252       H  0.09245343  0.06380881  0.61437892    -0.06700
C1253       C  0.00570426  0.06052758  0.84170400     0.86800
C1254       C  0.96208732  0.01218813  0.59832005     0.87400
C1255       C  0.07402922  0.06160283  0.58378794     0.87500
H1256       H  0.05930417  0.98237711  0.82996460    -0.06700
O1257       O  0.97213479  0.93665122  0.80977354    -0.75700
Mg1258     Mg  0.06168010  0.07031382  0.91658149     1.58000
H1259       H  0.94226224  0.95444430  0.76794310    -0.06700
C1260       C  0.91750329  0.07298276  0.85436403     0.92500
O1261       O  0.05449545  0.13831706  0.52297346    -0.82900
C1262       C  0.08926114  0.15125286  0.51570712     0.92500
O1263       O  0.87587520  0.90864126  0.58163108    -0.82900
Mg1264     Mg  0.99453389  0.91645944  0.87561333     1.58200
O1265       O  0.94662410  0.08485062  0.88220378    -0.81300
O1266       O  0.10579767  0.96005088  0.56462551    -0.83000
C1267       C  0.02578620  0.50819796  0.89523455    -0.02700
C1268       C  0.50121633  0.00270410  0.90110872    -0.02700
C1269       C  0.51263051  0.46970665  0.89580003    -0.02700
C1270       C  0.64061624  0.82289403  0.69667134    -0.20100
C1271       C  0.61175321  0.78661069  0.89205546     0.36200
C1272       C  0.64494759  0.80769541  0.86515202    -0.26000
C1273       C  0.71356667  0.86609193  0.65853987     0.02600
C1274       C  0.70210915  0.88046522  0.69725098     0.27400
C1275       C  0.66581697  0.85880411  0.71621592    -0.25200
N1276       N  0.58049874  0.75371139  0.87038282    -0.82600
H1277       H  0.64728418  0.79854470  0.82846010     0.13200
C1278       C  0.75238293  0.88611087  0.64057628     0.02600
N1279       N  0.72734786  0.91697568  0.71731727    -0.81100
H1280       H  0.65755727  0.87002887  0.74660782     0.18000
C1281       C  0.76115295  0.90832752  0.59746884    -0.26000
C1282       C  0.79678608  0.92364457  0.57626902     0.36100
C1283       C  0.82388112  0.91621422  0.59832071    -0.20000
C1284       C  0.81504911  0.89467331  0.64226576    -0.25200
C1285       C  0.73120738  0.83554786  0.85686833     0.27400
H1286       H  0.73995736  0.91291987  0.57951483     0.13200
N1287       N  0.80469619  0.94529413  0.53135289    -0.82500
H1288       H  0.78400743  0.83815049  0.84731081     0.18000
N1289       N  0.71078661  0.79514190  0.86244671    -0.81100
H1290       H  0.78507983  0.92843476  0.50420043     0.33700
H1291       H  0.80083136  0.96821596  0.53800566     0.38200
H1292       H  0.72821945  0.78386213  0.85643956     0.33600
H1293       H  0.70223717  0.78900049  0.89935574     0.30300
H1294       H  0.71472204  0.93358056  0.71335624     0.33600
H1295       H  0.73081118  0.91373518  0.75523606     0.30300
H1296       H  0.55822131  0.75902041  0.86685706     0.38200
H1297       H  0.58679059  0.74958125  0.83439369     0.33700
C1298       C  0.50856571  0.97204711  0.87616203    -0.20100
C1299       C  0.49846601  0.95839883  0.82653747     0.36200
C1300       C  0.50360436  0.92852655  0.80950443    -0.26000
C1301       C  0.51514248  0.90862912  0.84170865     0.02600
C1302       C  0.52163097  0.91965767  0.89207209     0.27400
C1303       C  0.51888993  0.95079167  0.90821094    -0.25200
N1304       N  0.47969109  0.97200189  0.79447371    -0.82600
H1305       H  0.49745866  0.92013322  0.77097203     0.13200
C1306       C  0.52138483  0.87723972  0.82300757     0.02600
N1307       N  0.52973502  0.89837481  0.92785924    -0.81100
H1308       H  0.52400081  0.95796460  0.94727980     0.18000
C1309       C  0.55474932  0.87769628  0.83660009    -0.26000
C1310       C  0.56284456  0.85009043  0.82007835     0.36100
C1311       C  0.53787349  0.82098727  0.78754444    -0.20000
C1312       C  0.50381004  0.81953968  0.77469892    -0.25200
C1313       C  0.49521925  0.84710518  0.79226566     0.27400
H1314       H  0.57546460  0.90034988  0.85964661     0.13200
N1315       N  0.59720825  0.85215064  0.83614174    -0.82500
H1316       H  0.47604631  0.75762644  0.06825233     0.18000
N1317       N  0.46017041  0.84468277  0.77859970    -0.81100
H1318       H  0.61948796  0.87823472  0.82501150     0.33700
H1319       H  0.59752559  0.85124078  0.87497724     0.38200
H1320       H  0.43486839  0.77509927  0.09792609     0.33600
H1321       H  0.44503590  0.84020854  0.81113674     0.30300
H1322       H  0.55542831  0.91666151  0.94519754     0.33600
H1323       H  0.50899253  0.88835738  0.95487328     0.30300
H1324       H  0.45381765  0.94908967  0.78349821     0.38200
H1325       H  0.49570593  0.98363542  0.76311415     0.33700
C1326       C  0.51787035  0.50186308  0.93250145    -0.20100
C1327       C  0.48773504  0.49767648  0.96247770     0.36200
C1328       C  0.48851818  0.52947769  0.98372552    -0.26000
C1329       C  0.51858140  0.56594438  0.97576814     0.02600
C1330       C  0.54991960  0.57020861  0.95036128     0.27400
C1331       C  0.54954673  0.53872896  0.92952751    -0.25200
N1332       N  0.45504007  0.46138721  0.96906653    -0.82600
H1333       H  0.46433964  0.52581420  0.00373388     0.13200
C1334       C  0.51519789  0.59984830  0.98653477     0.02600
N1335       N  0.58157389  0.60714277  0.94297690    -0.81100
H1336       H  0.57318376  0.54465840  0.90685753     0.18000
C1337       C  0.52042878  0.61446463  0.03484361    -0.26000
C1338       C  0.52432892  0.65029493  0.04335699     0.36100
C1339       C  0.52273421  0.67178740  0.00289116    -0.20000
C1340       C  0.51452930  0.65562438  0.95523552    -0.25200
C1341       C  0.51066014  0.62005941  0.94690056     0.27400
H1342       H  0.52356026  0.59909819  0.06559619     0.13200
N1343       N  0.53245249  0.66570916  0.09247455    -0.82500
H1344       H  0.51303854  0.67159669  0.92366950     0.18000
N1345       N  0.50361705  0.60505033  0.89758000    -0.81100
H1346       H  0.55707610  0.66669891  0.10528112     0.33700
H1347       H  0.51063773  0.64718548  0.11546476     0.38200
H1348       H  0.47878313  0.60330176  0.88418632     0.33600
H1349       H  0.52557826  0.62400500  0.87514342     0.30300
H1350       H  0.60533686  0.60734758  0.95783314     0.33600
H1351       H  0.58528330  0.61205245  0.90472891     0.30300
H1352       H  0.45159423  0.45571788  0.00719297     0.38200
H1353       H  0.43174854  0.46277782  0.95562599     0.33700
C1354       C  0.79525860  0.61049725  0.91212117    -0.20100
C1355       C  0.81278413  0.64497472  0.66160706     0.36200
C1356       C  0.79903295  0.67038883  0.89052987    -0.26000
C1357       C  0.82769097  0.67867642  0.85681642     0.02600
C1358       C  0.83710012  0.65080757  0.84661317     0.27400
C1359       C  0.82086405  0.61705483  0.87412557    -0.25200
N1360       N  0.79324067  0.64079765  0.70677017    -0.82600
H1361       H  0.82437084  0.70181053  0.64984850     0.13200
C1362       C  0.85221861  0.71861194  0.84121409     0.02600
N1363       N  0.86430788  0.65740877  0.80970500    -0.81100
H1364       H  0.82997322  0.59685712  0.86740933     0.18000
C1365       C  0.90741174  0.74199411  0.56693913    -0.26000
C1366       C  0.92815028  0.78013646  0.55359943     0.36100
C1367       C  0.89779129  0.79826746  0.83626711    -0.20000
C1368       C  0.86048962  0.78009240  0.81816560    -0.25200
C1369       C  0.83754375  0.74049856  0.82056886     0.27400
H1370       H  0.92227201  0.72730813  0.57765711     0.13200
N1371       N  0.96828779  0.79822116  0.55385063    -0.82500
H1372       H  0.84854950  0.79689338  0.80451591     0.18000
N1373       N  0.79900406  0.72256392  0.80419097    -0.81100
H1374       H  0.97596835  0.78401634  0.52887917     0.33700
H1375       H  0.97736355  0.79542494  0.58941207     0.38200
H1376       H  0.79241266  0.74261539  0.79051278     0.33600
H1377       H  0.79585011  0.70506151  0.77437742     0.30300
H1378       H  0.88625798  0.65538666  0.82685191     0.33600
H1379       H  0.85163987  0.63590522  0.78329218     0.30300
H1380       H  0.77056298  0.64485543  0.69865551     0.38200
H1381       H  0.81144942  0.66203666  0.73120851     0.33700
C1382       C  0.55019754  0.48076023  0.86778224    -0.20100
C1383       C  0.58314077  0.48750383  0.89511535     0.36200
C1384       C  0.61597611  0.49474906  0.87073135    -0.26000
C1385       C  0.61790813  0.49560754  0.81896796     0.02600
C1386       C  0.58596717  0.48922778  0.79104758     0.27400
C1387       C  0.55253486  0.48133586  0.81522784    -0.25200
N1388       N  0.58380517  0.48764874  0.94828992    -0.82600
H1389       H  0.64040885  0.49982836  0.89274281     0.13200
C1390       C  0.65403313  0.50419614  0.79525641     0.02600
N1391       N  0.58771731  0.49160797  0.73798351    -0.81100
H1392       H  0.52837478  0.47520831  0.79228759     0.18000
C1393       C  0.65674544  0.47631273  0.76853380    -0.26000
C1394       C  0.69088484  0.48370298  0.74729105     0.36100
C1395       C  0.72326865  0.51986084  0.75230449    -0.20000
C1396       C  0.72039548  0.54737096  0.77973133    -0.25200
C1397       C  0.68645788  0.53984716  0.80119877     0.27400
H1398       H  0.63214151  0.44861885  0.76410654     0.13200
N1399       N  0.69143735  0.45446273  0.71938819    -0.82500
H1400       H  0.73468934  0.59506330  0.05063949     0.18000
N1401       N  0.68478464  0.56892118  0.82809401    -0.81100
H1402       H  0.69989062  0.46436806  0.68326231     0.33700
H1403       H  0.71120033  0.44862019  0.73582899     0.38200
H1404       H  0.70321053  0.61472210  0.11893552     0.33600
H1405       H  0.69279837  0.59200898  0.80425846     0.30300
H1406       H  0.56770312  0.46553376  0.72345504     0.33600
H1407       H  0.58061496  0.51175398  0.72638483     0.30300
H1408       H  0.59020325  0.46717271  0.96074197     0.38200
H1409       H  0.60545352  0.51397454  0.96016704     0.33700
C1410       C  0.99686501  0.51661512  0.92199186    -0.20100
C1411       C  0.97453134  0.49403623  0.96234590     0.36200
C1412       C  0.94296051  0.49602009  0.97809107    -0.26000
C1413       C  0.93163695  0.51935832  0.95417449     0.02600
C1414       C  0.95329333  0.54213193  0.91448227     0.27400
C1415       C  0.98502205  0.54039689  0.89887009    -0.25200
N1416       N  0.98296727  0.46801461  0.98715089    -0.82600
H1417       H  0.92652421  0.47828173  0.00860834     0.13200
C1418       C  0.89669124  0.51930874  0.96986581     0.02600
N1419       N  0.94261660  0.56668738  0.88946466    -0.81100
H1420       H  0.99944794  0.55680209  0.86660547     0.18000
C1421       C  0.89934805  0.54601378  0.00442294    -0.26000
C1422       C  0.86800774  0.55001718  0.01537067     0.36100
C1423       C  0.83296917  0.52674481  0.99162208    -0.20000
C1424       C  0.82991712  0.49883408  0.95876287    -0.25200
C1425       C  0.86124497  0.49473370  0.94787646     0.27400
H1426       H  0.92641507  0.56490328  0.02137732     0.13200
N1427       N  0.86978584  0.53821525  0.76158749    -0.82500
H1428       H  0.80350187  0.48163409  0.93924576     0.18000
N1429       N  0.85741319  0.46638249  0.91348832    -0.81100
H1430       H  0.89502852  0.54372681  0.77877427     0.33700
H1431       H  0.84854561  0.52232313  0.78683525     0.38200
H1432       H  0.82960784  0.45040841  0.90091564     0.33600
H1433       H  0.87341433  0.48012181  0.88234030     0.30300
H1434       H  0.96148564  0.58197000  0.86134405     0.33600
H1435       H  0.91661677  0.54980394  0.87197886     0.30300
H1436       H  0.98771937  0.47534153  0.02455621     0.38200
H1437       H  0.95920718  0.44111479  0.98484159     0.33700
C1438       C  0.20486241  0.81041378  0.66411257    -0.20100
C1439       C  0.16580871  0.79359639  0.67182358     0.36200
C1440       C  0.14647645  0.81164734  0.65427215    -0.26000
C1441       C  0.16514120  0.84621484  0.62901425     0.02600
C1442       C  0.16473753  0.85197541  0.02189472     0.27400
C1443       C  0.18807702  0.83693401  0.03182440    -0.25200
N1444       N  0.14557625  0.75861247  0.69822559    -0.82600
H1445       H  0.11674002  0.79889867  0.66129491     0.13200
C1446       C  0.14407033  0.86536313  0.61356586     0.02600
N1447       N  0.18089803  0.89181526  0.01421277    -0.81100
H1448       H  0.21805065  0.85618540  0.03446405     0.18000
C1449       C  0.15547914  0.90135318  0.63228319    -0.26000
C1450       C  0.13656895  0.92062315  0.61861292     0.36100
C1451       C  0.10524879  0.90356779  0.58580438    -0.20000
C1452       C  0.05767182  0.85176077  0.95362559    -0.25200
C1453       C  0.07752906  0.83303573  0.96539358     0.27400
H1454       H  0.17925673  0.91459307  0.65781758     0.13200
N1455       N  0.14905482  0.95735123  0.63874388    -0.82500
H1456       H  0.04108021  0.84451812  0.91953815     0.18000
N1457       N  0.07578770  0.80504384  0.93234413    -0.81100
H1458       H  0.17699663  0.97496244  0.62872339     0.33700
H1459       H  0.14816254  0.95509301  0.67749708     0.38200
H1460       H  0.04774710  0.78370098  0.92883736     0.33600
H1461       H  0.08471098  0.81754524  0.89742107     0.30300
H1462       H  0.19641353  0.90560297  0.04612592     0.33600
H1463       H  0.19941769  0.89976998  0.98458963     0.30300
H1464       H  0.13324133  0.76309757  0.72900851     0.38200
H1465       H  0.12411900  0.73923083  0.67487479     0.33700
C1466       C  0.20844810  0.70303134  0.74112732    -0.20100
C1467       C  0.17643970  0.67526960  0.71491973     0.36200
C1468       C  0.14904428  0.64284561  0.73985961    -0.26000
C1469       C  0.15252869  0.63715625  0.79078387     0.02600
C1470       C  0.18610951  0.66309910  0.81602903     0.27400
C1471       C  0.21358812  0.69587241  0.79108041    -0.25200
N1472       N  0.17111946  0.68100823  0.66322935    -0.82600
H1473       H  0.12389967  0.62269913  0.71989983     0.13200
C1474       C  0.12001141  0.60483228  0.81694811     0.02600
N1475       N  0.19173952  0.65650341  0.86722883    -0.81100
H1476       H  0.23790451  0.71692713  0.81151597     0.18000
C1477       C  0.10589031  0.56774588  0.80037241    -0.26000
C1478       C  0.07515388  0.53671559  0.82331378     0.36100
C1479       C  0.05574693  0.54207908  0.86291490    -0.20000
C1480       C  0.07091228  0.57977944  0.87959920    -0.25200
C1481       C  0.10191392  0.61080032  0.85686105     0.27400
H1482       H  0.11954212  0.56258200  0.76992932     0.13200
N1483       N  0.06462112  0.49967191  0.80652971    -0.82500
H1484       H  0.05884732  0.58543442  0.91126157     0.18000
N1485       N  0.11502052  0.64850928  0.87425446    -0.81100
H1486       H  0.08798892  0.49610238  0.81024243     0.33700
H1487       H  0.05799003  0.49831953  0.76880653     0.38200
H1488       H  0.11076371  0.66345424  0.84548413     0.33600
H1489       H  0.09909566  0.64830998  0.90412404     0.30300
H1490       H  0.19298044  0.63160885  0.86889178     0.33600
H1491       H  0.21761476  0.67806726  0.88051695     0.30300
H1492       H  0.19292611  0.68122957  0.64374565     0.38200
H1493       H  0.14615149  0.65840325  0.64934061     0.33700
C1494       C  0.46614789  0.97597374  0.93349143    -0.20100
C1495       C  0.46611502  0.97194742  0.98610858     0.36200
C1496       C  0.43508136  0.94168715  0.01004811    -0.26000
C1497       C  0.40413011  0.91386985  0.98314343     0.02600
C1498       C  0.40323905  0.91823122  0.93137977     0.27400
C1499       C  0.43359349  0.94851404  0.90754321    -0.25200
N1500       N  0.49776153  0.99726056  0.01573804    -0.82600
H1501       H  0.43540339  0.93962944  0.05009776     0.13200
C1502       C  0.37181174  0.88152495  0.00924988     0.02600
N1503       N  0.37129070  0.89191421  0.90258246    -0.81100
H1504       H  0.43188297  0.95027652  0.86757944     0.18000
C1505       C  0.35129615  0.88970044  0.04284277    -0.26000
C1506       C  0.31698463  0.86111217  0.06167752     0.36100
C1507       C  0.30232357  0.82309430  0.04726111    -0.20000
C1508       C  0.32425333  0.81432953  0.01697086    -0.25200
C1509       C  0.35895267  0.84290104  0.99826893     0.27400
H1510       H  0.36093855  0.91880778  0.05253735     0.13200
N1511       N  0.29628890  0.87102017  0.09438621    -0.82500
H1512       H  0.31352408  0.78536648  0.00556463     0.18000
N1513       N  0.37981125  0.83164827  0.96756018    -0.81100
H1514       H  0.31328030  0.88435334  0.12547849     0.33700
H1515       H  0.29077960  0.89045244  0.07602071     0.38200
H1516       H  0.40570465  0.85467197  0.95808947     0.33600
H1517       H  0.38599714  0.81385050  0.98889039     0.30300
H1518       H  0.36039939  0.90689754  0.88368262     0.33600
H1519       H  0.38044630  0.87998637  0.87609508     0.30300
H1520       H  0.50993019  0.98245766  0.03144692     0.38200
H1521       H  0.48838406  0.00747877  0.04414765     0.33700
C1522       C  0.17118969  0.07319962  0.96049915    -0.20100
C1523       C  0.18563516  0.04839383  0.95659542     0.36200
C1524       C  0.22388834  0.06186986  0.96521753    -0.26000
C1525       C  0.24815999  0.09959707  0.97803997     0.02600
C1526       C  0.26014286  0.14036432  0.50008754     0.27400
C1527       C  0.22241837  0.12377996  0.48495544    -0.25200
N1528       N  0.16176695  0.00957286  0.94333205    -0.82600
H1529       H  0.23474767  0.04275180  0.96170112     0.13200
C1530       C  0.28839048  0.11277971  0.98696430     0.02600
N1531       N  0.28111528  0.18004945  0.50995286    -0.81100
H1532       H  0.20984541  0.14149947  0.48177586     0.18000
C1533       C  0.31497504  0.14232739  0.95784306    -0.26000
C1534       C  0.35335573  0.15725379  0.96701972     0.36100
C1535       C  0.36553803  0.14228091  0.00587598    -0.20000
C1536       C  0.34999183  0.13506332  0.60867182    -0.25200
C1537       C  0.31557086  0.11816441  0.58250326     0.27400
H1538       H  0.30584016  0.15416465  0.92812728     0.13200
N1539       N  0.37988342  0.18747909  0.93654338    -0.82500
H1540       H  0.35169498  0.12451279  0.64521819     0.18000
N1541       N  0.28280073  0.08728517  0.60434959    -0.81100
H1542       H  0.37493544  0.17835734  0.89962996     0.33700
H1543       H  0.37496639  0.21009514  0.93932376     0.38200
H1544       H  0.28943498  0.07998303  0.63892416     0.33600
H1545       H  0.26383359  0.09660206  0.61101192     0.30300
H1546       H  0.28151947  0.19434712  0.47727282     0.33600
H1547       H  0.26696250  0.18618765  0.53678367     0.30300
H1548       H  0.17212078  0.00433523  0.91108171     0.38200
H1549       H  0.16333774  0.99281009  0.97189816     0.33700
C1550       C  0.49306637  0.02784451  0.86313973    -0.20100
C1551       C  0.46192997  0.03441559  0.86501222     0.36200
C1552       C  0.45985233  0.06089844  0.83283719    -0.26000
C1553       C  0.48861960  0.08334540  0.80014927     0.02600
C1554       C  0.51994114  0.07830449  0.79872983     0.27400
C1555       C  0.52165292  0.05070463  0.82912471    -0.25200
N1556       N  0.43320129  0.01666191  0.90127646    -0.82600
H1557       H  0.43583090  0.06494563  0.83478786     0.13200
C1558       C  0.48485161  0.11146796  0.76757073     0.02600
N1559       N  0.55059278  0.10174756  0.76714263    -0.81100
H1560       H  0.54634353  0.04781636  0.82717257     0.18000
C1561       C  0.49784412  0.14857588  0.78409650    -0.26000
C1562       C  0.49087505  0.17422295  0.75630471     0.36100
C1563       C  0.47060569  0.16294164  0.71070007    -0.20000
C1564       C  0.45893833  0.12604756  0.69372004    -0.25200
C1565       C  0.46543773  0.10035231  0.72164301     0.27400
H1566       H  0.51252187  0.15735772  0.81957543     0.13200
N1567       N  0.50326447  0.21109713  0.77564310    -0.82500
H1568       H  0.44364790  0.11659120  0.65875880     0.18000
N1569       N  0.45098956  0.06236777  0.70442674    -0.81100
H1570       H  0.53236921  0.22461730  0.78077104     0.33700
H1571       H  0.49120902  0.20802866  0.81044020     0.38200
H1572       H  0.43710612  0.05837803  0.67014668     0.33600
H1573       H  0.47382084  0.05855520  0.69837758     0.30300
H1574       H  0.57455081  0.11662168  0.78961000     0.33600
H1575       H  0.55519260  0.08414915  0.74418397     0.30300
H1576       H  0.40734583  0.00191440  0.88256703     0.38200
H1577       H  0.43283139  0.03763029  0.92262507     0.33700
C1578       C  0.50363871  0.43158613  0.92275360    -0.20100
C1579       C  0.49716057  0.39945345  0.89472381     0.36200
C1580       C  0.49438260  0.36712304  0.91834688    -0.26000
C1581       C  0.49879886  0.36536517  0.97002209     0.02600
C1582       C  0.50598359  0.39725602  0.99817758     0.27400
C1583       C  0.50759853  0.42924376  0.97491281    -0.25200
N1584       N  0.49403752  0.39969212  0.84161724    -0.82600
H1585       H  0.48895104  0.34314018  0.89573957     0.13200
C1586       C  0.49570351  0.33000248  0.99337787     0.02600
N1587       N  0.51344404  0.39813911  0.05044369    -0.81100
H1588       H  0.51444458  0.45321107  0.99817418     0.18000
C1589       C  0.51559451  0.31339741  0.97366876    -0.26000
C1590       C  0.50931978  0.27754069  0.99010356     0.36100
C1591       C  0.48331243  0.25799701  0.02800284    -0.20000
C1592       C  0.46543944  0.27583045  0.04979337    -0.25200
C1593       C  0.47056587  0.31069661  0.03226545     0.27400
H1594       H  0.53486675  0.32768765  0.94366492     0.13200
N1595       N  0.52693891  0.25961061  0.96570431    -0.82500
H1596       H  0.41776902  0.27663160  0.67501703     0.18000
N1597       N  0.44760835  0.32464126  0.05133266    -0.81100
H1598       H  0.54455812  0.27710459  0.93775179     0.33700
H1599       H  0.54407121  0.25622772  0.99202384     0.38200
H1600       H  0.40720630  0.32863329  0.63379195     0.33600
H1601       H  0.45223571  0.32795213  0.08975177     0.30300
H1602       H  0.54038471  0.42074711  0.05760952     0.33600
H1603       H  0.49430461  0.40340439  0.06846292     0.30300
H1604       H  0.51495823  0.39550639  0.82685844     0.38200
H1605       H  0.46802631  0.37694085  0.83090730     0.33700
C1606       C  0.23303705  0.37887319  0.60770830    -0.20100
C1607       C  0.20215643  0.33670117  0.04715516     0.36200
C1608       C  0.19382390  0.33884825  0.54019059    -0.26000
C1609       C  0.19185542  0.30720736  0.56400274     0.02600
C1610       C  0.21269939  0.31182163  0.60825336     0.27400
C1611       C  0.23377827  0.34783237  0.62904399    -0.25200
N1612       N  0.23828858  0.35368618  0.02482948    -0.82600
H1613       H  0.18497583  0.28176446  0.01733130     0.13200
C1614       C  0.16560535  0.26893533  0.54516238     0.02600
N1615       N  0.21056037  0.27959055  0.63346200    -0.81100
H1616       H  0.24809653  0.35099116  0.66442889     0.18000
C1617       C  0.11771299  0.21241640  0.05999925    -0.26000
C1618       C  0.09498554  0.17576336  0.04144861     0.36100
C1619       C  0.11610292  0.19211921  0.52318562    -0.20000
C1620       C  0.10219423  0.21641944  0.53359051    -0.25200
C1621       C  0.12653633  0.25461436  0.54489989     0.27400
H1622       H  0.13981146  0.21781563  0.08685589     0.13200
N1623       N  0.10049486  0.14574914  0.05943094    -0.82500
H1624       H  0.07219763  0.20545974  0.53417516     0.18000
N1625       N  0.11173958  0.27856952  0.55777797    -0.81100
H1626       H  0.09698234  0.14381011  0.09792918     0.33700
H1627       H  0.12818636  0.15296382  0.05245805     0.38200
H1628       H  0.08243165  0.26374115  0.55547633     0.33600
H1629       H  0.11889964  0.28634749  0.59498630     0.30300
H1630       H  0.22759612  0.28788190  0.66546475     0.33600
H1631       H  0.18298411  0.26263768  0.64534282     0.30300
H1632       H  0.23439244  0.34939567  0.98644814     0.38200
H1633       H  0.25210826  0.33970818  0.03822732     0.33700
C1634       C  0.31863331  0.46168163  0.73596575    -0.20100
C1635       C  0.35304472  0.47331884  0.71214732     0.36200
C1636       C  0.38360596  0.47449642  0.73837912    -0.26000
C1637       C  0.38105177  0.46371626  0.78857645     0.02600
C1638       C  0.34727793  0.45401251  0.81336319     0.27400
C1639       C  0.31647949  0.45290617  0.78696682    -0.25200
N1640       N  0.35677607  0.48307917  0.66044574    -0.82600
H1641       H  0.40925050  0.48276653  0.71871625     0.13200
C1642       C  0.41425514  0.46347381  0.81372072     0.02600
N1643       N  0.34409357  0.44541730  0.86538801    -0.81100
H1644       H  0.29027219  0.44341584  0.80591649     0.18000
C1645       C  0.45026370  0.49522961  0.80984545    -0.26000
C1646       C  0.48220487  0.49656671  0.83244566     0.36100
C1647       C  0.47926003  0.46534448  0.86062123    -0.20000
C1648       C  0.44288100  0.43291882  0.86246849    -0.25200
C1649       C  0.41111945  0.43160007  0.83904667     0.27400
H1650       H  0.45369028  0.51986281  0.78974386     0.13200
N1651       N  0.51760211  0.53058459  0.82766385    -0.82500
H1652       H  0.43799522  0.40852392  0.88413321     0.18000
N1653       N  0.37568526  0.39733905  0.84066424    -0.81100
H1654       H  0.51505041  0.55283379  0.84185284     0.33700
H1655       H  0.52341144  0.53581771  0.78981911     0.38200
H1656       H  0.37883884  0.37600718  0.82455122     0.33600
H1657       H  0.36885291  0.39018578  0.87795366     0.30300
H1658       H  0.33826546  0.46435930  0.88332482     0.33600
H1659       H  0.32117453  0.41827142  0.87025170     0.30300
H1660       H  0.36379277  0.46520221  0.64197741     0.38200
H1661       H  0.37909387  0.51071156  0.65675123     0.33700
C1662       C  0.19886498  0.48049857  0.05431731    -0.20100
C1663       C  0.16441796  0.46981827  0.07785018     0.36200
C1664       C  0.13822237  0.47842892  0.05546911    -0.26000
C1665       C  0.14539738  0.49749699  0.00979763     0.02600
C1666       C  0.18114301  0.51127663  0.98871730     0.27400
C1667       C  0.20749509  0.50268975  0.01097025    -0.25200
N1668       N  0.16346823  0.40602815  0.74172140    -0.82600
H1669       H  0.11117544  0.46836350  0.07237919     0.13200
C1670       C  0.11395803  0.49918925  0.98251813     0.02600
N1671       N  0.19032746  0.53302999  0.94379107    -0.81100
H1672       H  0.23354532  0.51100196  0.99222414     0.18000
C1673       C  0.10034030  0.52240229  0.99921960    -0.26000
C1674       C  0.07046513  0.52400252  0.97421286     0.36100
C1675       C  0.05236480  0.50114109  0.93162306    -0.20000
C1676       C  0.06632258  0.47747017  0.91633249    -0.25200
C1677       C  0.09577049  0.47582971  0.94118775     0.27400
H1678       H  0.11345008  0.54003730  0.03150281     0.13200
N1679       N  0.05921391  0.54952313  0.99215769    -0.82500
H1680       H  0.05485504  0.46004491  0.88373891     0.18000
N1681       N  0.10623182  0.44949302  0.92376784    -0.81100
H1682       H  0.08251937  0.57674246  0.99147022     0.33700
H1683       H  0.05124565  0.54256983  0.02916802     0.38200
H1684       H  0.13411426  0.46426978  0.91260851     0.33600
H1685       H  0.10394642  0.43149972  0.95311914     0.30300
H1686       H  0.21413610  0.55922566  0.95094660     0.33600
H1687       H  0.19737966  0.51936019  0.91716506     0.30300
H1688       H  0.18007101  0.41975041  0.77294143     0.38200
H1689       H  0.13633596  0.38809408  0.75448121     0.33700
C1690       C  0.90281984  0.09900901  0.84521755    -0.20100
C1691       C  0.87961410  0.08795631  0.50125446     0.36200
C1692       C  0.86821367  0.11341631  0.51606828    -0.26000
C1693       C  0.87886601  0.15198741  0.85820375     0.02600
C1694       C  0.91658402  0.16454242  0.84674292     0.27400
C1695       C  0.92827605  0.13790502  0.84072216    -0.25200
N1696       N  0.85245433  0.04855886  0.49852530    -0.82600
H1697       H  0.83928959  0.10253268  0.52645276     0.13200
C1698       C  0.86767570  0.17774852  0.88078791     0.02600
N1699       N  0.94311436  0.20428501  0.84395231    -0.81100
H1700       H  0.95774425  0.14756220  0.83545841     0.18000
C1701       C  0.88609931  0.19668263  0.92464542    -0.26000
C1702       C  0.87149701  0.21410118  0.95415787     0.36100
C1703       C  0.83765641  0.21274903  0.93980026    -0.20000
C1704       C  0.82074954  0.19615400  0.89391916    -0.25200
C1705       C  0.83559292  0.17885773  0.86434725     0.27400
H1706       H  0.91068059  0.19580257  0.93793867     0.13200
N1707       N  0.88996073  0.23089765  0.00022181    -0.82500
H1708       H  0.79523968  0.19556820  0.88159793     0.18000
N1709       N  0.81769308  0.16181040  0.81810201    -0.81100
H1710       H  0.91738060  0.25204346  0.99254418     0.33700
H1711       H  0.89134811  0.21023854  0.02194941     0.38200
H1712       H  0.78989938  0.14136724  0.82522588     0.34600
H1713       H  0.81747010  0.18268778  0.79550635     0.30300
H1714       H  0.96977730  0.20886660  0.83568848     0.33600
H1715       H  0.93484221  0.21527546  0.81415751     0.30300
H1716       H  0.84019640  0.03982712  0.53339116     0.38200
H1717       H  0.83150415  0.04511628  0.47297174     0.33700
C1718       C  0.99814070  0.47233225  0.86364286    -0.20100
C1719       C  0.98066284  0.47464437  0.81836154     0.36200
C1720       C  0.95238698  0.44161335  0.79473292    -0.26000
C1721       C  0.93934523  0.40565305  0.81569831     0.02600
C1722       C  0.95435056  0.40312163  0.86216271     0.27400
C1723       C  0.98326347  0.43583818  0.88495496    -0.25200
N1724       N  0.99110324  0.51045135  0.79603582    -0.82600
H1725       H  0.94067565  0.44422965  0.75956275     0.13200
C1726       C  0.91222052  0.37047209  0.78787076     0.02600
N1727       N  0.93963301  0.36710398  0.88664992    -0.81100
H1728       H  0.99370410  0.43235993  0.92052081     0.18000
C1729       C  0.92250157  0.34312410  0.77955657    -0.26000
C1730       C  0.89830280  0.30910286  0.75516636     0.36100
C1731       C  0.86288513  0.30184742  0.73678912    -0.20000
C1732       C  0.85205304  0.32887857  0.74576328    -0.25200
C1733       C  0.87634362  0.36297086  0.77115040     0.27400
H1734       H  0.94973227  0.34812472  0.79240023     0.13200
N1735       N  0.87581229  0.25937826  0.10300956    -0.82500
H1736       H  0.82499228  0.32391062  0.73225470     0.18000
N1737       N  0.86410616  0.38938128  0.78091439    -0.81100
H1738       H  0.87490786  0.25025257  0.13969190     0.33700
H1739       H  0.90224049  0.26705919  0.08919782     0.38200
H1740       H  0.85683579  0.39697795  0.74703353     0.33600
H1741       H  0.83983395  0.37562038  0.80209677     0.30300
H1742       H  0.95349708  0.36976494  0.92063668     0.33600
H1743       H  0.91159358  0.35771182  0.89483136     0.30300
H1744       H  0.00042834  0.51075109  0.76014773     0.38200
H1745       H  0.96709043  0.51296327  0.79290521     0.33700
C1746       C  0.71831540  0.19129560  0.00287370    -0.20100
C1747       C  0.69700140  0.16509543  0.04027104     0.36200
C1748       C  0.65983982  0.13560131  0.02970789    -0.26000
C1749       C  0.64340486  0.13154376  0.98205001     0.02600
C1750       C  0.66392903  0.15905702  0.94578067     0.27400
C1751       C  0.70085170  0.18826714  0.95626394    -0.25200
N1752       N  0.71378663  0.16681239  0.08798004    -0.82600
H1753       H  0.64453371  0.11471185  0.05807416     0.13200
C1754       C  0.60698404  0.09663078  0.96804898     0.02600
N1755       N  0.64787677  0.15635118  0.89722800    -0.81100
H1756       H  0.71680079  0.20758997  0.92669233     0.18000
C1757       C  0.57236919  0.09461523  0.97506932    -0.26000
C1758       C  0.53827883  0.06401454  0.95651317     0.36100
C1759       C  0.53769308  0.03348293  0.93030909    -0.20000
C1760       C  0.57323989  0.03629448  0.92414317    -0.25200
C1761       C  0.60692492  0.06658803  0.94289351     0.27400
H1762       H  0.57181947  0.11762146  0.99374347     0.13200
N1763       N  0.50432214  0.06483541  0.96324577    -0.82500
H1764       H  0.57616927  0.01620257  0.90198635     0.18000
N1765       N  0.64116919  0.06657330  0.93454277    -0.81100
H1766       H  0.50734668  0.08930535  0.94621412     0.33700
H1767       H  0.50111303  0.06693644  0.00126872     0.38200
H1768       H  0.65889474  0.09046861  0.91368661     0.33600
H1769       H  0.65413301  0.06826278  0.96898683     0.30300
H1770       H  0.64766578  0.18141242  0.89002889     0.33600
H1771       H  0.66531492  0.15420035  0.87138184     0.30300
H1772       H  0.74910753  0.17708574  0.77730082     0.38200
H1773       H  0.72880601  0.13027344  0.76963159     0.33700
loop_ 
_geom_bond_atom_site_label_1 
_geom_bond_atom_site_label_2 
_geom_bond_distance 
_geom_bond_site_symmetry_2 
_ccdc_geom_bond_type 
C1            N2   1.360       .  A
C1         N1188   1.379       .  A
C1          C549   1.507       .  S
N2            C3   1.356   1_554  A
C3         N1186   1.354       .  A
C3         C1703   1.488       .  S
N4            C5   1.359       .  A
N4          C594   1.354       .  A
C5            N6   1.377       .  A
C5          C564   1.492       .  S
N6          C592   1.375       .  A
C7            N8   1.375       .  A
C7           N12   1.357       .  A
C7          C480   1.497       .  S
N8          C600   1.375       .  A
C9           N10   1.361       .  A
C9         N1190   1.379       .  A
C9          C452   1.504       .  S
N10        C1193   1.355       .  A
C11          N12   1.355       .  A
C11         N601   1.354       .  A
C11        C1015   1.482       .  S
C13          N14   1.361       .  A
C13          N18   1.384       .  A
C13         C381   1.518       .  S
N14          C15   1.350       .  A
C15        N1198   1.345       .  A
C15        C1535   1.474       .  S
N16          C17   1.356       .  A
N16         C606   1.350       .  A
C17         N609   1.374       .  A
C17         C409   1.490       .  S
N18        C1199   1.382       .  A
C19          N24   1.351       .  A
C19         N611   1.373       .  A
C19         C325   1.485       .  S
N20          C21   1.375       .  A
N20        C1201   1.375       .  A
C21          N22   1.354       .  A
C21         C284   1.488       .  S
N22          C23   1.350       .  A
C23        N1206   1.353       .  A
C23         C256   1.485       .  S
N24         C614   1.350       .  A
C25          N26   1.374       .  A
C25          N30   1.354       .  A
C25         C241   1.492       .  S
N26         C618   1.376       .  A
C27          N28   1.360   1_554  A
C27        N1208   1.378       .  A
C27         C213   1.513       .  S
N28        C1211   1.355       .  A
C29          N30   1.353       .  A
C29         N619   1.359       .  A
C29         C172   1.484       .  S
C31          N32   1.356       .  A
C31          N36   1.370       .  A
C31         C129   1.486       .  S
N32          C33   1.353   1_554  A
C33        N1216   1.352       .  A
C33          C88   1.480       .  S
N34          C35   1.353       .  A
N34         C624   1.349       .  A
C35         N627   1.378       .  A
C35         C157   1.490       .  S
N36        C1217   1.371       .  A
O37         Mg39   2.158       .  S
O37       Mg1227   2.153   1_545  S
O37          C72   1.235   1_545  S
C38          O51   1.237       .  S
C38          O75   1.272       .  A
C38          H77   1.081       .  S
Mg39       O1250   2.148   1_655  S
Mg39         O79   2.289   1_655  S
Mg39         O50   2.288   1_556  S
Mg39       O1265   2.292       .  S
O40         Mg65   2.132       .  S
O40       Mg1264   2.148       .  S
O40          C61   1.236       .  S
O41          C72   1.270       .  A
O41         Mg65   2.303       .  S
C42         C340   1.490       .  S
C42          O44   1.271       .  A
C42          O56   1.275       .  A
O43          C71   1.267       .  A
O43         Mg45   2.283   1_445  S
O44         Mg76   2.253       .  S
Mg45         O51   2.121       .  S
Mg45        O628   2.160       .  S
Mg45         O59   2.237   1_565  S
Mg45        O638   2.268       .  S
C46         C269   1.478       .  S
C46          O84   1.265       .  A
C46          O52   1.274       .  A
O47          C54   1.277       .  A
O47       Mg1227   2.320       .  S
H48          C61   1.081       .  S
C49          O63   1.238       .  S
C49          O64   1.273   1_565  A
C49          H74   1.081       .  S
O50          C73   1.268   1_655  A
O51        Mg656   2.143       .  S
O52       Mg1264   2.307   1_455  S
C53         C185   1.492       .  S
C53          O66   1.272       .  A
C53          O58   1.270       .  A
C54         C101   1.488       .  S
C54          O81   1.271       .  A
Mg55         O62   2.104   1_565  S
Mg55       O1245   2.159       .  S
Mg55         O57   2.289   1_455  S
Mg55         O84   2.208       .  S
Mg55       O1238   2.258   1_565  S
O56        Mg646   2.303   1_545  S
O57          C61   1.268       .  A
O58        Mg656   2.286       .  S
O59          C78   1.269       .  A
O60          C80   1.274       .  A
O60       Mg1258   2.288       .  S
O62       Mg1258   2.145       .  S
O62          C73   1.235   1_556  S
O63         Mg82   2.168       .  S
O63        Mg646   2.167       .  S
O64         Mg76   2.315       .  S
Mg65       O1233   2.157       .  S
Mg65         O81   2.238       .  S
Mg65       O1240   2.324       .  S
O66         Mg82   2.291   1_655  S
H67          C72   1.081       .  S
O68         Mg76   2.125       .  S
O68        Mg630   2.159       .  S
O68          C71   1.235       .  S
H69          C71   1.081       .  S
H70          C73   1.082       .  S
O75         Mg82   2.308   1_655  S
Mg76        O653   2.145       .  S
Mg76        O651   2.322       .  S
C78         C508   1.476       .  S
C78          O83   1.275       .  A
O79          C80   1.275       .  A
C80         C437   1.480   1_556  S
Mg82        O631   2.132       .  S
Mg82        O643   2.292       .  S
O83        Mg630   2.300   1_655  S
C85         C228   1.581   1_455  S
C85         C297   1.581       .  S
C85         C493   1.584       .  S
C85         C536   1.585   1_455  S
C86         C116   1.576       .  S
C86         C312   1.577       .  S
C86         C368   1.588       .  S
C86         C577   1.580       .  S
C87         C144   1.582       .  S
C87         C200   1.587       .  S
C87         C396   1.575       .  S
C87         C465   1.585       .  S
C88          C93   1.402       .  A
C88        C1271   1.414       .  A
C89          C90   1.403       .  A
C89         C679   1.413       .  A
C89          N94   1.438       .  S
C90          H95   1.084       .  S
C90         C682   1.401       .  A
C91          C96   1.482       .  S
C91          C92   1.412       .  A
C91        C1272   1.403       .  A
C92          C93   1.399       .  A
C92          N97   1.439       .  S
C93          H98   1.084       .  S
N94         H114   1.046       .  S
N94         H115   1.046       .  S
C96          C99   1.402       .  A
C96        C1285   1.410       .  A
N97         H112   1.046       .  S
N97         H113   1.046       .  S
C99         H104   1.084       .  S
C99         C100   1.402       .  A
C100        C101   1.412       .  A
C100        N105   1.431       .  S
C101        C102   1.408       .  A
C102       H1288   1.083       .  S
C102       C1285   1.402       .  A
C103        C687   1.409       .  A
C103        C693   1.405       .  A
C103        N107   1.438       .  S
N105        H108   1.045       .  S
N105        H109   1.046       .  S
H106        C693   1.083       .  S
N107        H110   1.046       .  S
N107        H111   1.046       .  S
C116        C117   1.422       .  A
C116        C121   1.422       .  A
C117        C118   1.411       .  A
C117        N122   1.426       .  S
C118        H123   1.084       .  S
C118        C119   1.402       .  A
C119        C124   1.497       .  S
C119        C120   1.406       .  A
C120        C121   1.407       .  A
C120        N125   1.438       .  S
C121        H126   1.079       .  S
N122        H142   1.046       .  S
N122        H143   1.041       .  S
C124        C127   1.403       .  A
C124        C131   1.415       .  A
N125        H140   1.046       .  S
N125        H141   1.046       .  S
C127        H132   1.084       .  S
C127        C128   1.408       .  A
C128        C129   1.414       .  A
C128        N133   1.438       .  S
C129        C130   1.403       .  A
C130       H1316   1.083       .  S
C130        C131   1.414       .  A
C131        N135   1.437       .  S
N133        H136   1.046       .  S
N133        H137   1.046       .  S
H134        C721   1.083       .  S
N135        H139   1.046       .  S
N135       H1320   1.046       .  S
H138        N726   1.046       .  S
C144        C145   1.431       .  A
C144        C149   1.419       .  A
C145        C146   1.412       .  A
C145        N150   1.432       .  S
C146        H151   1.084       .  S
C146        C147   1.399       .  A
C147        C152   1.501       .  S
C147        C148   1.410       .  A
C148        C149   1.415       .  A
C148        N153   1.438       .  S
C149        H154   1.079       .  S
N150        H170   1.046       .  S
N150        H171   1.046       .  S
C152        C155   1.404       .  A
C152        C159   1.409       .  A
N153        H168   1.045       .  S
N153        H169   1.045       .  S
C155        H160   1.081       .  S
C155        C156   1.417       .  A
C156        C157   1.415       .  A
C156        N161   1.437       .  S
C157        C158   1.407       .  A
C158        H162   1.084       .  S
C158        C159   1.412       .  A
C159        N163   1.432       .  S
N161        H164   1.046       .  S
N161        H165   1.046       .  S
N163        H166   1.045       .  S
N163        H167   1.046       .  S
C172        C177   1.408       .  A
C172        C764   1.408       .  A
C173       C1354   1.416       .  A
C173       C1356   1.404       .  A
C173        N178   1.432       .  S
C174        H770   1.084       .  S
C174        C175   1.407       .  A
C174        C764   1.402       .  A
C175        C180   1.493       .  S
C175        C176   1.412       .  A
C176        C177   1.409       .  A
C176        N181   1.438       .  S
C177        H182   1.084       .  S
N178        H198   1.046       .  S
N178        H199   1.046       .  S
H179       C1356   1.084       .  S
C180        C187   1.411       .  A
C180        C774   1.406       .  A
N181        H196   1.046       .  S
N181        H197   1.046       .  S
C183        H188   1.084       .  S
C183        C184   1.400       .  A
C183       C1362   1.401       .  A
C184       C1367   1.417       .  A
C184        N189   1.434       .  S
C185        C186   1.409       .  A
C185        C775   1.413       .  A
C186        H190   1.083       .  S
C186        C187   1.405       .  A
C187        N191   1.438       .  S
N189        H192   1.045       .  S
N189        H193   1.046       .  S
N191        H194   1.046       .  S
N191        H195   1.045       .  S
C200        C201   1.432       .  A
C200        C205   1.419       .  A
C201        C202   1.415       .  A
C201        N206   1.433       .  S
C202        H207   1.084       .  S
C202        C203   1.400       .  A
C203        C208   1.507       .  S
C203        C204   1.408       .  A
C204        C205   1.415       .  A
C204        N209   1.430       .  S
C205        H210   1.080       .  S
N206        H226   1.046       .  S
N206        H227   1.046       .  S
C208        C211   1.411       .  A
C208        C215   1.405       .  A
N209        H224   1.044       .  S
N209        H225   1.046       .  S
C211        H216   1.083       .  S
C211        C212   1.419       .  A
C212        C213   1.420       .  A
C212        N217   1.431       .  S
C213        C214   1.413       .  A
C214       H1400   1.083       .  S
C214        C215   1.408       .  A
C215        N219   1.432       .  S
N217        H220   1.045       .  S
N217        H221   1.045       .  S
H218        C805   1.084       .  S
N219        H223   1.046       .  S
N219       H1404   1.046       .  S
H222        N810   1.046       .  S
C228        C229   1.428       .  A
C228        C233   1.418       .  A
C229        C230   1.419       .  A
C229        N234   1.427       .  S
C230        H235   1.083       .  S
C230        C231   1.404       .  A
C231        C236   1.508       .  S
C231        C232   1.407       .  A
C232        C233   1.407       .  A
C232        N237   1.432       .  S
C233        H238   1.082       .  S
N234        H254   1.045   1_655  S
N234        H255   1.046       .  S
C236        C239   1.407       .  A
C236        C243   1.413       .  A
N237        H252   1.046       .  S
N237        H253   1.046       .  S
C239        H244   1.083       .  S
C239        C240   1.419       .  A
C240        C241   1.414       .  A
C240        N836   1.437       .  S
C241        C242   1.405       .  A
C242        H246   1.084       .  S
C242        C243   1.411       .  A
C243        N247   1.432       .  S
N245       C1422   1.437       .  S
N245        H248   1.046       .  S
N245        H249   1.046       .  S
N247        H250   1.045       .  S
N247        H251   1.046       .  S
C256        C257   1.417       .  A
C256       C1443   1.406       .  A
C257        C258   1.402       .  A
C257        N262   1.432       .  S
C258        H263   1.084       .  S
C258        C259   1.400       .  A
C259        C264   1.476       .  S
C259       C1442   1.407       .  A
C260        C261   1.403       .  A
C260        C850   1.409       .  A
C260        N265   1.438       .  S
C261        H266   1.083       .  S
C261        C847   1.409       .  A
N262        H282   1.046       .  S
N262        H283   1.046       .  S
C264        C267   1.399       .  A
C264       C1453   1.408   1_554  A
N265        H280   1.046       .  S
N265        H281   1.045       .  S
C267        H272   1.085       .  S
C267        C268   1.397       .  A
C268        C269   1.413   1_554  A
C268        N273   1.432       .  S
C269       C1452   1.405       .  A
C270        H274   1.083       .  S
C270        C271   1.405       .  A
C270        C860   1.410       .  A
C271        C855   1.409       .  A
C271        N275   1.438       .  S
N273        H276   1.046       .  S
N273        H277   1.042       .  S
N275        H278   1.046       .  S
N275        H279   1.046       .  S
C284        C285   1.416       .  A
C284        C289   1.405       .  A
C285        C286   1.412       .  A
C285        N290   1.438       .  S
C286        H291   1.082       .  S
C286        C287   1.402       .  A
C287        C292   1.499       .  S
C287        C288   1.411       .  A
C288        C289   1.412       .  A
C288        N293   1.430       .  S
C289        H294   1.084       .  S
N290        H310   1.045   1_554  S
N290        H311   1.046   1_554  S
C292        C295   1.400       .  A
C292        C299   1.406       .  A
N293        H308   1.045       .  S
N293        H309   1.043       .  S
C295        H300   1.084       .  S
C295        C296   1.413       .  A
C296        C297   1.431       .  A
C296        N301   1.432       .  S
C297        C298   1.420       .  A
C298        H302   1.079       .  S
C298        C299   1.408       .  A
C299        N303   1.433       .  S
N301        H304   1.046       .  S
N301        H305   1.045       .  S
N303        H306   1.046       .  S
N303        H307   1.046       .  S
C312        C313   1.427       .  A
C312        C317   1.420       .  A
C313        C314   1.417       .  A
C313        N318   1.427       .  S
C314        H319   1.084       .  S
C314        C315   1.403       .  A
C315        C320   1.504       .  S
C315        C316   1.406       .  A
C316        C317   1.406       .  A
C316        N321   1.433       .  S
C317        H322   1.079       .  S
N318        H338   1.046       .  S
N318        H339   1.042       .  S
C320        C323   1.405       .  A
C320        C327   1.416       .  A
N321        H336   1.046       .  S
N321        H337   1.046       .  S
C323        H328   1.084       .  S
C323        C324   1.411       .  A
C324        C325   1.410       .  A
C324        N329   1.432       .  S
C325        C326   1.405       .  A
C326        H330   1.084       .  S
C326        C327   1.415       .  A
C327        N331   1.437       .  S
N329        H332   1.045       .  S
N329        H333   1.046       .  S
N331        H334   1.045       .  S
N331        H335   1.046       .  S
C340        C341   1.415       .  A
C340        C936   1.408       .  A
C341        C342   1.403       .  A
C341        N346   1.432       .  S
C342        H347   1.084       .  S
C342        C343   1.401       .  A
C343        C348   1.482       .  S
C343        C935   1.410       .  A
C344        C345   1.404       .  A
C344       C1525   1.411       .  A
C344        N349   1.438       .  S
C345        H350   1.083       .  S
C345       C1522   1.404       .  A
N346        H366   1.045       .  S
N346        H367   1.045       .  S
C348        C351   1.404       .  A
C348        C946   1.409       .  A
N349        H364   1.046       .  S
N349        H365   1.046   1_556  S
C351        H356   1.084       .  S
C351        C352   1.405       .  A
C352        C353   1.412       .  A
C352        N357   1.433       .  S
C353        C606   1.477       .  S
C353        C945   1.402       .  A
C354        H358   1.084       .  S
C354        C355   1.405       .  A
C354       C1535   1.403       .  A
C355       C1530   1.411   1_554  A
C355        N359   1.437       .  S
N357        H360   1.046       .  S
N357        H361   1.046       .  S
N359        H362   1.045       .  S
N359        H363   1.045       .  S
C368        C369   1.436       .  A
C368        C373   1.424   1_565  A
C369        C370   1.411   1_565  A
C369        N374   1.432       .  S
C370        H375   1.084       .  S
C370        C371   1.401       .  A
C371        C376   1.510       .  S
C371        C372   1.407       .  A
C372        C373   1.418       .  A
C372        N377   1.432       .  S
C373        H378   1.082       .  S
N374        H394   1.046       .  S
N374        H395   1.045       .  S
C376        C379   1.413       .  A
C376        C383   1.406       .  A
N377        H392   1.045       .  S
N377        H393   1.045       .  S
C379        H384   1.083       .  S
C379        C380   1.425       .  A
C380        C381   1.416       .  A
C380        N385   1.430       .  S
C381        C382   1.415       .  A
C382        H386   1.083       .  S
C382        C383   1.405       .  A
C383        N387   1.433       .  S
N385        H388   1.046       .  S
N385        H389   1.045       .  S
N387        H390   1.046       .  S
N387        H391   1.046       .  S
C396        C397   1.428       .  A
C396        C401   1.420       .  A
C397        C398   1.404       .  A
C397        N402   1.431       .  S
C398        H403   1.084       .  S
C398        C399   1.396       .  A
C399        C404   1.493       .  S
C399        C400   1.406       .  A
C400        C401   1.414       .  A
C400        N405   1.431       .  S
C401        H406   1.080       .  S
N402        H422   1.046       .  S
N402        H423   1.046       .  S
C404        C407   1.408       .  A
C404        C411   1.405       .  A
N405        H420   1.045       .  S
N405        H421   1.045       .  S
C407        H412   1.083       .  S
C407        C408   1.417       .  A
C408        C409   1.411       .  A
C408        N413   1.436       .  S
C409        C410   1.408       .  A
C410       H1005   1.084       .  S
C410        C411   1.405       .  A
C411        N415   1.432       .  S
N413        H416   1.046       .  S
N413        H417   1.045       .  S
H414       C1592   1.085       .  S
N415        H419   1.045       .  S
N415       H1009   1.046       .  S
H418       N1597   1.046       .  S
C424       C1193   1.480       .  S
C424        C429   1.406       .  A
C424       C1607   1.410       .  A
C425       C1015   1.412       .  A
C425       C1017   1.401       .  A
C425        N430   1.433       .  S
C426       H1613   1.084       .  S
C426        C427   1.401       .  A
C426       C1607   1.403       .  A
C427        C432   1.479       .  S
C427        C428   1.406       .  A
C428        C429   1.404       .  A
C428        N433   1.432       .  S
C429        H434   1.084       .  S
N430        H450   1.046       .  S
N430        H451   1.046       .  S
H431       C1017   1.084       .  S
C432        C439   1.408       .  A
C432       C1617   1.401       .  A
N433        H448   1.046       .  S
N433        H449   1.045       .  S
C435        H440   1.084       .  S
C435        C436   1.404       .  A
C435       C1023   1.400       .  A
C436       C1028   1.415       .  A
C436        N441   1.433       .  S
C437        C438   1.403   1_554  A
C437       C1618   1.413       .  A
C438        H442   1.084       .  S
C438        C439   1.404   1_556  A
C439        N443   1.432   1_554  S
N441        H444   1.046       .  S
N441        H445   1.046       .  S
N443        H446   1.046       .  S
N443        H447   1.045       .  S
C452        C453   1.416       .  A
C452        C457   1.408       .  A
C453        C454   1.410       .  A
C453        N458   1.432       .  S
C454        H459   1.084       .  S
C454        C455   1.402       .  A
C455        C460   1.506       .  S
C455        C456   1.417       .  A
C456        C457   1.422       .  A
C456        N461   1.437       .  S
C457        H462   1.083       .  S
N458        H478   1.045       .  S
N458        H479   1.046   1_554  S
C460        C463   1.403       .  A
C460        C467   1.406       .  A
N461        H476   1.045       .  S
N461        H477   1.046       .  S
C463        H468   1.084       .  S
C463        C464   1.417       .  A
C464        C465   1.428       .  A
C464        N469   1.431       .  S
C465        C466   1.420       .  A
C466        H470   1.079       .  S
C466        C467   1.410       .  A
C467        N471   1.432       .  S
N469        H472   1.046       .  S
N469        H473   1.043       .  S
N471        H474   1.046       .  S
N471        H475   1.046       .  S
C480        C481   1.414       .  A
C480        C485   1.406       .  A
C481        C482   1.413       .  A
C481       N1077   1.432       .  S
C482        H487   1.084       .  S
C482        C483   1.404       .  A
C483        C488   1.505       .  S
C483        C484   1.412       .  A
C484        C485   1.416       .  A
C484        N489   1.431       .  S
C485        H490   1.084       .  S
N486       C1663   1.438       .  S
N486        H506   1.045       .  S
N486        H507   1.046       .  S
C488        C491   1.399       .  A
C488        C495   1.412       .  A
N489        H504   1.045       .  S
N489        H505   1.046       .  S
C491        H496   1.081       .  S
C491        C492   1.413       .  A
C492        C493   1.431       .  A
C492        N497   1.432       .  S
C493        C494   1.420       .  A
C494        H498   1.079       .  S
C494        C495   1.410       .  A
C495        N499   1.432       .  S
N497        H500   1.046       .  S
N497        H501   1.045       .  S
N499        H502   1.046       .  S
N499        H503   1.045       .  S
C508        C513   1.404       .  A
C508       C1100   1.411       .  A
C509        C510   1.403       .  A
C509       C1690   1.410       .  A
C509        N514   1.432       .  S
C510        H515   1.084       .  S
C510       C1693   1.404       .  A
C511        C516   1.476       .  S
C511        C512   1.408       .  A
C511       C1101   1.401       .  A
C512        C513   1.400       .  A
C512        N517   1.433       .  S
C513        H518   1.084       .  S
N514        H534   1.046       .  S
N514        H535   1.045       .  S
C516        C519   1.402       .  A
C516        C523   1.402       .  A
N517        H532   1.046       .  S
N517        H533   1.045       .  S
C519        H524   1.084       .  S
C519        C520   1.407       .  A
C520        C521   1.417       .  A
C520        N525   1.438       .  S
C521        C594   1.486       .  S
C521        C522   1.409       .  A
C522        H526   1.083       .  S
C522        C523   1.398       .  A
C523        N527   1.433       .  S
N525        H528   1.046       .  S
N525        H529   1.046       .  S
N527        H530   1.046       .  S
N527        H531   1.046       .  S
C536        C537   1.430       .  A
C536        C541   1.419       .  A
C537        C538   1.418       .  A
C537        N542   1.430       .  S
C538        H543   1.084       .  S
C538        C539   1.405       .  A
C539        C544   1.514       .  S
C539        C540   1.415       .  A
C540        C541   1.409       .  A
C540        N545   1.433       .  S
C541        H546   1.082       .  S
N542        H562   1.043   1_655  S
N542        H563   1.046       .  S
C544        C547   1.404       .  A
C544        C551   1.417       .  A
N545        H560   1.046       .  S
N545        H561   1.044       .  S
C547        H552   1.083       .  S
C547        C548   1.411       .  A
C548        C549   1.416       .  A
C548       N1735   1.432       .  S
C549        C550   1.408       .  A
C550        H554   1.083       .  S
C550        C551   1.422       .  A
C551        N555   1.431       .  S
N553       C1139   1.439       .  S
N553        H556   1.046       .  S
N553        H557   1.045       .  S
N555        H558   1.046       .  S
N555        H559   1.045       .  S
C564        C565   1.414       .  A
C564        C569   1.405       .  A
C565        C566   1.415       .  A
C565        N570   1.437       .  S
C566        H571   1.084       .  S
C566        C567   1.404       .  A
C567        C572   1.501       .  S
C567        C568   1.414       .  A
C568        C569   1.416       .  A
C568        N573   1.438       .  S
C569        H574   1.084       .  S
N570       H1181   1.046       .  S
N570       H1182   1.046       .  S
C572        C575   1.402       .  A
C572        C579   1.408       .  A
N573        H588   1.046       .  S
N573        H589   1.045       .  S
C575        H580   1.081       .  S
C575        C576   1.417       .  A
C576        C577   1.424   1_545  A
C576        N581   1.428   1_545  S
C577        C578   1.422       .  A
C578        H582   1.080       .  S
C578        C579   1.402   1_565  A
C579        N583   1.433       .  S
N581        H584   1.043   1_565  S
N581        H585   1.045       .  S
N583        H586   1.045       .  S
N583        H587   1.045       .  S
H590       N1752   1.045       .  S
H591       N1752   1.046       .  S
C592        N593   1.354       .  A
C592       C1140   1.499       .  S
N593        C594   1.350       .  A
N595       C1185   1.352       .  A
N595        C596   1.354       .  A
C596        N597   1.371       .  A
C596       C1155   1.486       .  S
N597       C1183   1.374       .  A
C598        N599   1.379       .  A
C598        N603   1.353       .  A
C598       C1071   1.494       .  S
N599       C1191   1.380       .  A
C600        N601   1.357       .  A
C600       C1043   1.492       .  S
C602       N1192   1.353       .  A
C602        N603   1.349       .  A
C602       C1606   1.470       .  S
C604        N605   1.361       .  A
C604        N609   1.375       .  A
C604        C972   1.505       .  S
N605        C606   1.353       .  A
N607       C1197   1.351       .  A
N607        C608   1.356       .  A
C608       N1200   1.377       .  A
C608       C1000   1.498       .  S
C610       N1202   1.377       .  A
C610        N615   1.356       .  A
C610        C916   1.496       .  S
N611        C612   1.376       .  A
C612        N613   1.363       .  A
C612        C875   1.504       .  S
N613        C614   1.356       .  A
C614        C847   1.487       .  S
N615       C1205   1.353       .  A
C616        N617   1.374       .  A
C616        N621   1.358       .  A
C616        C832   1.492       .  S
N617       C1209   1.374       .  A
C618        N619   1.361       .  A
C618        C804   1.499       .  S
C620       N1210   1.353       .  A
C620        N621   1.356       .  A
C620        C763   1.484       .  S
C622        N623   1.358       .  A
C622        N627   1.378       .  A
C622        C720   1.500       .  S
N623        C624   1.352       .  A
C624        C679   1.476       .  S
N625       C1215   1.349       .  A
N625        C626   1.352       .  A
C626       N1218   1.383       .  A
C626        C748   1.503       .  S
O628       Mg630   2.123   1_665  S
O628        C663   1.237       .  S
C629        O642   1.238       .  S
C629        O666   1.273       .  A
C629        H668   1.081       .  S
Mg630       O670   2.242       .  S
Mg630       O641   2.293       .  S
O631       Mg656   2.140   1_455  S
O631        C652   1.234       .  S
O632        C663   1.269       .  A
O632       Mg656   2.291       .  S
C633        C931   1.484       .  S
C633        O635   1.273       .  A
C633        O647   1.271       .  A
O634        C662   1.273   1_655  A
O634       Mg636   2.317   1_545  S
O635       Mg667   2.273       .  S
Mg636      O1219   2.135   1_565  S
Mg636       O642   2.170       .  S
Mg636       O650   2.292   1_565  S
Mg636      O1229   2.320       .  S
C637        C860   1.487       .  S
C637        O675   1.271       .  A
C637        O643   1.273       .  A
O638        C645   1.270       .  A
H639        C652   1.081       .  S
C640        O654   1.236       .  S
C640        O655   1.269   1_565  A
C640        H665   1.081       .  S
O641        C664   1.269       .  A
O642      Mg1247   2.170       .  S
C644        C776   1.489       .  S
C644        O657   1.270       .  A
C644        O649   1.279       .  A
C645        C692   1.486       .  S
C645        O672   1.272       .  A
Mg646       O653   2.142   1_565  S
Mg646       O648   2.302       .  S
Mg646       O675   2.258       .  S
O647      Mg1237   2.279       .  S
O648        C652   1.269       .  A
O649      Mg1247   2.331       .  S
O650        C669   1.275       .  A
O651        C671   1.277       .  A
O653        C664   1.235       .  S
O654      Mg1237   2.153   1_565  S
O654       Mg673   2.128       .  S
O655       Mg667   2.294       .  S
Mg656       O672   2.265       .  S
O657       Mg673   2.238   1_655  S
H658        C663   1.081       .  S
O659      Mg1221   2.159       .  S
O659       Mg667   2.149       .  S
O659        C662   1.238       .  S
H660        C662   1.082       .  S
H661        C664   1.081       .  S
O666       Mg673   2.310   1_655  S
Mg667      O1244   2.146       .  S
Mg667      O1242   2.273       .  S
C669       C1099   1.496       .  S
C669        O674   1.273       .  A
O670        C671   1.272       .  A
C671       C1028   1.489       .  S
Mg673      O1222   2.145   1_455  S
Mg673      O1234   2.327       .  S
O674      Mg1221   2.293   1_655  S
C676        C819   1.582       .  S
C676        C888   1.576   1_655  S
C676       C1084   1.579   1_655  S
C676       C1127   1.579       .  S
C677        C707   1.583   1_545  S
C677        C903   1.575   1_545  S
C677        C959   1.588       .  S
C677       C1168   1.579       .  S
C678        C735   1.593       .  S
C678        C791   1.589       .  S
C678        C987   1.586       .  S
C678       C1056   1.585       .  S
C679        C684   1.404       .  A
C680       C1270   1.417       .  A
C680        C681   1.399       .  A
C680        N685   1.433       .  S
C681        H686   1.084       .  S
C681       C1273   1.397       .  A
C682        C687   1.476       .  S
C682        C683   1.409       .  A
C683        C684   1.402       .  A
C683        N688   1.438       .  S
C684        H689   1.084       .  S
N685        H705   1.046       .  S
N685        H706   1.046       .  S
C687        C690   1.398       .  A
N688        H703   1.046       .  S
N688        H704   1.046       .  S
C690        H695   1.084       .  S
C690        C691   1.398       .  A
C691        C692   1.418       .  A
C691        N696   1.433       .  S
C692        C693   1.407       .  A
C694       C1278   1.403       .  A
C694       C1284   1.400       .  A
C694        N698   1.433       .  S
N696        H699   1.046       .  S
N696        H700   1.046       .  S
H697       C1284   1.084       .  S
N698        H701   1.045       .  S
N698        H702   1.046       .  S
C707        C708   1.424       .  A
C707        C712   1.421       .  A
C708        C709   1.417       .  A
C708        N713   1.427       .  S
C709        H714   1.080       .  S
C709        C710   1.406       .  A
C710        C715   1.512       .  S
C710        C711   1.410       .  A
C711        C712   1.409       .  A
C711        N716   1.438       .  S
C712        H717   1.079       .  S
N713        H733   1.043       .  S
N713        H734   1.044       .  S
C715        C718   1.404       .  A
C715        C722   1.419       .  A
N716        H731   1.046       .  S
N716        H732   1.046       .  S
C718        H723   1.083       .  S
C718        C719   1.409       .  A
C719        C720   1.417       .  A
C719        N724   1.439       .  S
C720        C721   1.407       .  A
C721        C722   1.422       .  A
C722        N726   1.437       .  S
N724        H727   1.046       .  S
N724        H728   1.046       .  S
H725       C1312   1.083       .  S
N726        H730   1.046       .  S
H729       N1317   1.046       .  S
C735        C736   1.434       .  A
C735        C740   1.421       .  A
C736        C737   1.419       .  A
C736        N741   1.432       .  S
C737        H742   1.084       .  S
C737        C738   1.402       .  A
C738        C743   1.513       .  S
C738        C739   1.408       .  A
C739        C740   1.416       .  A
C739        N744   1.432       .  S
C740        H745   1.078       .  S
N741        H761   1.044       .  S
N741        H762   1.046       .  S
C743        C746   1.410       .  A
C743        C750   1.416       .  A
N744        H759   1.045       .  S
N744        H760   1.046       .  S
C746        H751   1.084       .  S
C746        C747   1.422       .  A
C747        C748   1.414       .  A
C747        N752   1.430       .  S
C748        C749   1.409       .  A
C749        H753   1.084       .  S
C749        C750   1.410       .  A
C750        N754   1.433       .  S
N752        H755   1.046       .  S
N752        H756   1.045       .  S
N754        H757   1.045       .  S
N754        H758   1.046       .  S
C763       C1355   1.412       .  A
C763        C768   1.406       .  A
C764        N769   1.432       .  S
C765       H1361   1.084       .  S
C765       C1355   1.402       .  A
C765        C766   1.403       .  A
C766        C771   1.486       .  S
C766        C767   1.412       .  A
C767        C768   1.406       .  A
C767        N772   1.438       .  S
C768        H773   1.083       .  S
N769        H789   1.046       .  S
N769        H790   1.046       .  S
C771       C1365   1.400       .  A
C771        C778   1.412       .  A
N772        H787   1.046       .  S
N772        H788   1.046       .  S
C774        H779   1.083       .  S
C774        C775   1.406       .  A
C775        N780   1.433       .  S
C776       C1366   1.417       .  A
C776        C777   1.407       .  A
C777        H781   1.083       .  S
C777        C778   1.410       .  A
C778        N782   1.437       .  S
N780        H783   1.046       .  S
N780        H784   1.046       .  S
N782        H785   1.046       .  S
N782        H786   1.046       .  S
C791        C792   1.429       .  A
C791        C796   1.420       .  A
C792        C793   1.417       .  A
C792        N797   1.432       .  S
C793        H798   1.083       .  S
C793        C794   1.405       .  A
C794        C799   1.518       .  S
C794        C795   1.413       .  A
C795        C796   1.414       .  A
C795        N800   1.433       .  S
C796        H801   1.078       .  S
N797        H817   1.046       .  S
N797        H818   1.045       .  S
C799        C802   1.411       .  A
C799        C806   1.417       .  A
N800        H815   1.045       .  S
N800        H816   1.046       .  S
C802        H807   1.084       .  S
C802        C803   1.410       .  A
C803        C804   1.414       .  A
C803        N808   1.432       .  S
C804        C805   1.408       .  A
C805        C806   1.418       .  A
C806        N810   1.432       .  S
N808        H811   1.046       .  S
N808        H812   1.045       .  S
H809       C1396   1.084       .  S
N810        H814   1.046       .  S
H813       N1401   1.046       .  S
C819        C820   1.428       .  A
C819        C824   1.421       .  A
C820        C821   1.416       .  A
C820        N825   1.432       .  S
C821        H826   1.081       .  S
C821        C822   1.402       .  A
C822        C827   1.502       .  S
C822        C823   1.404       .  A
C823        C824   1.408       .  A
C823        N828   1.433       .  S
C824        H829   1.079       .  S
N825        H845   1.045       .  S
N825        H846   1.046       .  S
C827        C830   1.406       .  A
C827        C834   1.414       .  A
N828        H843   1.045       .  S
N828        H844   1.046       .  S
C830        H835   1.084       .  S
C830        C831   1.417       .  A
C831        C832   1.414       .  A
C831       N1427   1.437       .  S
C832        C833   1.404       .  A
C833        H837   1.084       .  S
C833        C834   1.414       .  A
C834        N838   1.438       .  S
N836        H839   1.046       .  S
N836        H840   1.046       .  S
N838        H841   1.046       .  S
N838        H842   1.045       .  S
C847        C848   1.412       .  A
C848        C849   1.402       .  A
C848        N853   1.431       .  S
C849        H854   1.084       .  S
C849        C850   1.403       .  A
C850        C855   1.484       .  S
C851       C1441   1.409       .  A
C851        C852   1.404       .  A
C851        N856   1.438       .  S
C852        H857   1.083       .  S
C852       C1438   1.409       .  A
N853        H873   1.046       .  S
N853        H874   1.046       .  S
C855        C858   1.403       .  A
N856        H871   1.046       .  S
N856        H872   1.046       .  S
C858        H863   1.084       .  S
C858        C859   1.400       .  A
C859        C860   1.413       .  A
C859        N864   1.433       .  S
C861        H865   1.084       .  S
C861       C1451   1.405       .  A
C861        C862   1.408       .  A
C862       C1446   1.411       .  A
C862        N866   1.437       .  S
N864        H867   1.046       .  S
N864        H868   1.046       .  S
N866        H869   1.046       .  S
N866        H870   1.046       .  S
C875        C876   1.419       .  A
C875        C880   1.410       .  A
C876        C877   1.406       .  A
C876        N881   1.437       .  S
C877        H882   1.084       .  S
C877        C878   1.400       .  A
C878        C883   1.502       .  S
C878        C879   1.415       .  A
C879        C880   1.422       .  A
C879        N884   1.437       .  S
C880        H885   1.083       .  S
N881        H901   1.046       .  S
N881        H902   1.046       .  S
C883        C886   1.404       .  A
C883        C890   1.407       .  A
N884        H899   1.046       .  S
N884        H900   1.046       .  S
C886        H891   1.080       .  S
C886        C887   1.416       .  A
C887        C888   1.428       .  A
C887        N892   1.432       .  S
C888        C889   1.418       .  A
C889        H893   1.079       .  S
C889        C890   1.406       .  A
C890        N894   1.439       .  S
N892        H895   1.046       .  S
N892        H896   1.042       .  S
N894        H897   1.046       .  S
N894        H898   1.046       .  S
C903        C904   1.426       .  A
C903        C908   1.419       .  A
C904        C905   1.418       .  A
C904        N909   1.431       .  S
C905        H910   1.080       .  S
C905        C906   1.405       .  A
C906        C911   1.506       .  S
C906        C907   1.407       .  A
C907        C908   1.406       .  A
C907        N912   1.432       .  S
C908        H913   1.082       .  S
N909        H929   1.047       .  S
N909        H930   1.038       .  S
C911        C914   1.403       .  A
C911        C918   1.416       .  A
N912        H927   1.046       .  S
N912        H928   1.046       .  S
C914        H919   1.084       .  S
C914        C915   1.411       .  A
C915        C916   1.415       .  A
C915        N920   1.432       .  S
C916        C917   1.405       .  A
C917        H921   1.083       .  S
C917        C918   1.417       .  A
C918        N922   1.432       .  S
N920        H923   1.046       .  S
N920        H924   1.046       .  S
N922        H925   1.045       .  S
N922        H926   1.046       .  S
C931        C932   1.416       .  A
C931       C1527   1.405       .  A
C932        C933   1.406       .  A
C932        N937   1.438       .  S
C933        H938   1.084       .  S
C933        C934   1.403       .  A
C934        C939   1.486       .  S
C934       C1526   1.409       .  A
C935        C936   1.405       .  A
C935        N940   1.439       .  S
C936        H941   1.083       .  S
N937        H957   1.045       .  S
N937        H958   1.046       .  S
C939        C942   1.403       .  A
C939       C1537   1.414       .  A
N940        H955   1.046       .  S
N940        H956   1.046       .  S
C942        H947   1.084       .  S
C942        C943   1.407       .  A
C943        C944   1.412       .  A
C943        N948   1.438       .  S
C944       C1197   1.478       .  S
C944       C1536   1.401       .  A
C945        H949   1.084       .  S
C945        C946   1.399       .  A
C946        N950   1.433       .  S
N948        H951   1.046       .  S
N948        H952   1.046       .  S
N950        H953   1.045       .  S
N950        H954   1.046       .  S
C959        C960   1.438       .  A
C959        C964   1.423       .  A
C960        C961   1.411       .  A
C960        N965   1.432       .  S
C961        H966   1.084       .  S
C961        C962   1.397       .  A
C962        C967   1.500       .  S
C962        C963   1.408       .  A
C963        C964   1.416       .  A
C963        N968   1.438       .  S
C964        H969   1.083       .  S
N965        H985   1.046       .  S
N965        H986   1.046       .  S
C967        C970   1.409       .  A
C967        C974   1.403       .  A
N968        H983   1.045       .  S
N968        H984   1.045       .  S
C970        H975   1.083       .  S
C970        C971   1.422       .  A
C971        C972   1.418       .  A
C971        N976   1.437       .  S
C972        C973   1.410       .  A
C973        H977   1.084       .  S
C973        C974   1.403       .  A
C974        N978   1.429       .  S
N976        H979   1.046       .  S
N976        H980   1.046       .  S
N978        H981   1.046       .  S
N978        H982   1.045       .  S
C987        C988   1.431       .  A
C987        C992   1.420       .  A
C988        C989   1.406       .  A
C988        N993   1.432       .  S
C989        H994   1.084       .  S
C989        C990   1.397       .  A
C990        C995   1.505       .  S
C990        C991   1.413       .  A
C991        C992   1.422       .  A
C991        N996   1.437       .  S
C992        H997   1.079       .  S
N993       H1013   1.046       .  S
N993       H1014   1.045       .  S
C995        C998   1.411       .  A
C995       C1002   1.408       .  A
N996       H1011   1.045       .  S
N996       H1012   1.045       .  S
C998       H1003   1.084       .  S
C998        C999   1.417       .  A
C999       C1000   1.409       .  A
C999       N1004   1.431       .  S
C1000      C1001   1.410       .  A
C1001      H1596   1.084       .  S
C1001      C1002   1.409       .  A
C1002      N1006   1.432       .  S
N1004      H1007   1.046       .  S
N1004      H1008   1.045       .  S
N1006      H1600   1.046       .  S
N1006      H1010   1.046       .  S
C1015      C1020   1.408       .  A
C1016      C1606   1.409       .  A
C1016      C1608   1.403       .  A
C1016      N1021   1.433       .  S
C1017      C1018   1.400       .  A
C1018      C1023   1.477       .  S
C1018      C1019   1.407       .  A
C1019      C1020   1.407       .  A
C1019      N1024   1.437       .  S
C1020      H1025   1.083       .  S
N1021      H1041   1.046       .  S
N1021      H1042   1.046       .  S
H1022      C1608   1.084       .  S
C1023      C1030   1.406       .  A
N1024      H1039   1.046       .  S
N1024      H1040   1.044       .  S
C1026      H1031   1.084       .  S
C1026      C1614   1.398       .  A
C1026      C1027   1.399       .  A
C1027      C1619   1.417       .  A
C1027      N1032   1.433       .  S
C1028      C1029   1.409       .  A
C1029      H1033   1.083       .  S
C1029      C1030   1.404       .  A
C1030      N1034   1.438       .  S
N1032      H1035   1.046       .  S
N1032      H1036   1.045       .  S
N1034      H1037   1.046       .  S
N1034      H1038   1.045       .  S
C1043      C1044   1.418       .  A
C1043      C1048   1.404       .  A
C1044      C1045   1.416       .  A
C1044      N1049   1.438       .  S
C1045      H1050   1.083       .  S
C1045      C1046   1.404       .  A
C1046      C1051   1.498       .  S
C1046      C1047   1.410       .  A
C1047      C1048   1.412       .  A
C1047      N1052   1.432       .  S
C1048      H1053   1.084       .  S
N1049      H1069   1.046       .  S
N1049      H1070   1.046       .  S
C1051      C1054   1.401       .  A
C1051      C1058   1.403       .  A
N1052      H1067   1.045       .  S
N1052      H1068   1.045       .  S
C1054      H1059   1.084       .  S
C1054      C1055   1.415       .  A
C1055      C1056   1.430       .  A
C1055      N1060   1.432       .  S
C1056      C1057   1.422       .  A
C1057      H1061   1.078       .  S
C1057      C1058   1.408       .  A
C1058      N1062   1.432       .  S
N1060      H1063   1.046       .  S
N1060      H1064   1.044       .  S
N1062      H1065   1.046       .  S
N1062      H1066   1.046       .  S
C1071      C1072   1.415       .  A
C1071      C1076   1.407       .  A
C1072      C1073   1.416       .  A
C1072      N1668   1.437       .  S
C1073      H1078   1.083       .  S
C1073      C1074   1.404       .  A
C1074      C1079   1.505       .  S
C1074      C1075   1.415       .  A
C1075      C1076   1.418       .  A
C1075      N1080   1.438       .  S
C1076      H1081   1.084       .  S
N1077      H1097   1.046       .  S
N1077      H1098   1.045       .  S
C1079      C1082   1.402       .  A
C1079      C1086   1.410       .  A
N1080      H1095   1.046       .  S
N1080      H1096   1.045       .  S
C1082      H1087   1.082       .  S
C1082      C1083   1.419       .  A
C1083      C1084   1.429       .  A
C1083      N1088   1.429       .  S
C1084      C1085   1.420       .  A
C1085      H1089   1.079       .  S
C1085      C1086   1.404       .  A
C1086      N1090   1.433       .  S
N1088      H1091   1.046       .  S
N1088      H1092   1.044       .  S
N1090      H1093   1.044       .  S
N1090      H1094   1.045       .  S
C1099      C1691   1.414       .  A
C1099      C1104   1.412       .  A
C1100      C1101   1.402       .  A
C1100      N1105   1.432       .  S
C1101      H1106   1.084       .  S
C1102      C1107   1.488       .  S
C1102      C1692   1.403       .  A
C1102      C1103   1.408       .  A
C1103      C1104   1.407       .  A
C1103      N1108   1.438       .  S
C1104      H1109   1.083       .  S
N1105      H1125   1.046       .  S
N1105      H1126   1.046       .  S
C1107      C1110   1.405       .  A
C1107      C1114   1.407       .  A
N1108      H1123   1.046       .  S
N1108      H1124   1.046       .  S
C1110      H1115   1.084       .  S
C1110      C1111   1.405       .  A
C1111      C1112   1.410       .  A
C1111      N1116   1.432       .  S
C1112      C1185   1.482       .  S
C1112      C1113   1.406       .  A
C1113      H1117   1.084       .  S
C1113      C1114   1.405       .  A
C1114      N1118   1.432       .  S
N1116      H1119   1.045       .  S
N1116      H1120   1.046       .  S
N1118      H1121   1.046       .  S
N1118      H1122   1.045       .  S
C1127      C1128   1.427       .  A
C1127      C1132   1.420       .  A
C1128      C1129   1.411       .  A
C1128      N1133   1.431       .  S
C1129      H1134   1.084       .  S
C1129      C1130   1.402       .  A
C1130      C1135   1.504       .  S
C1130      C1131   1.414       .  A
C1131      C1132   1.410       .  A
C1131      N1136   1.433       .  S
C1132      H1137   1.080       .  S
N1133      H1153   1.044       .  S
N1133      H1154   1.046       .  S
C1135      C1138   1.401       .  A
C1135      C1142   1.416       .  A
N1136      H1151   1.043       .  S
N1136      H1152   1.046       .  S
C1138      H1143   1.084       .  S
C1138      C1139   1.409       .  A
C1139      C1140   1.420       .  A
C1140      C1141   1.406       .  A
C1141      H1145   1.083       .  S
C1141      C1142   1.418       .  A
C1142      N1146   1.432       .  S
N1144      C1730   1.432       .  S
N1144      H1147   1.046       .  S
N1144      H1148   1.046       .  S
N1146      H1149   1.045       .  S
N1146      H1150   1.045       .  S
C1155      C1156   1.413       .  A
C1155      C1160   1.404       .  A
C1156      C1157   1.414       .  A
C1156      N1161   1.436       .  S
C1157      H1162   1.084       .  S
C1157      C1158   1.405       .  A
C1158      C1163   1.497       .  S
C1158      C1159   1.412       .  A
C1159      C1160   1.412       .  A
C1159      N1164   1.438       .  S
C1160      H1165   1.084       .  S
N1161      H1772   1.046       .  S
N1161      H1773   1.046       .  S
C1163      C1166   1.399       .  A
C1163      C1170   1.410       .  A
N1164      H1179   1.046       .  S
N1164      H1180   1.046       .  S
C1166      H1171   1.083       .  S
C1166      C1167   1.412       .  A
C1167      C1168   1.427       .  A
C1167      N1172   1.429       .  S
C1168      C1169   1.420       .  A
C1169      H1173   1.079       .  S
C1169      C1170   1.405       .  A
C1170      N1174   1.433       .  S
N1172      H1175   1.046       .  S
N1172      H1176   1.043       .  S
N1174      H1177   1.045       .  S
N1174      H1178   1.045       .  S
C1183      N1184   1.364       .  A
C1183      C1731   1.502       .  S
N1184      C1185   1.357       .  A
N1186      C1187   1.358   1_556  A
C1187      N1188   1.378       .  A
C1187      C1746   1.503       .  S
C1189      N1190   1.378       .  A
C1189      N1194   1.355       .  A
C1189      C1662   1.501       .  S
C1191      N1192   1.358       .  A
C1191      C1634   1.502       .  S
C1193      N1194   1.351       .  A
C1195      N1196   1.362       .  A
C1195      N1200   1.379       .  A
C1195      C1563   1.515       .  S
N1196      C1197   1.355       .  A
N1198      C1199   1.351       .  A
C1199      C1591   1.497       .  S
C1201      N1206   1.356       .  A
C1201      C1507   1.497       .  S
N1202      C1203   1.378       .  A
C1203      N1204   1.357       .  A
C1203      C1466   1.500       .  S
N1204      C1205   1.352       .  A
C1205      C1438   1.490       .  S
C1207      N1208   1.378   1_556  A
C1207      N1212   1.356       .  A
C1207      C1423   1.497       .  S
C1209      N1210   1.357       .  A
C1209      C1395   1.499       .  S
C1211      N1212   1.355       .  A
C1211      C1354   1.493       .  S
C1213      N1214   1.360       .  A
C1213      N1218   1.384       .  A
C1213      C1311   1.513       .  S
N1214      C1215   1.353       .  A
C1215      C1270   1.486       .  S
N1216      C1217   1.358   1_556  A
C1217      C1339   1.489       .  S
O1219     Mg1221   2.146   1_655  S
O1219      C1254   1.235       .  S
C1220      O1233   1.235       .  S
C1220      O1257   1.271       .  A
C1220      H1259   1.081       .  S
Mg1221     O1261   2.265       .  S
Mg1221     O1232   2.288       .  S
O1222     Mg1247   2.133       .  S
O1222      C1243   1.235   1_655  S
O1223      C1254   1.269   1_565  A
O1223     Mg1247   2.300       .  S
C1224      C1522   1.482       .  S
C1224      O1226   1.273       .  A
C1224      O1238   1.268       .  A
O1225      C1253   1.271   1_655  A
O1225     Mg1227   2.302   1_545  S
O1226     Mg1258   2.277       .  S
Mg1227     O1233   2.166       .  S
Mg1227     O1241   2.289   1_565  S
C1228      C1451   1.482       .  S
C1228      O1266   1.268       .  A
C1228      O1234   1.277       .  A
O1229      C1236   1.277       .  A
H1230      C1243   1.081   1_655  S
C1231      O1245   1.237       .  S
C1231      O1246   1.270   1_565  A
C1231      H1256   1.081       .  S
O1232      C1255   1.268       .  A
C1235      C1367   1.492       .  S
C1235      O1248   1.269       .  A
C1235      O1240   1.277       .  A
C1236      C1283   1.482       .  S
C1236      O1263   1.273       .  A
Mg1237     O1244   2.118       .  S
Mg1237     O1239   2.287   1_545  S
Mg1237     O1266   2.229   1_545  S
O1239      C1243   1.267       .  A
O1241      C1260   1.275       .  A
O1242      C1262   1.270       .  A
O1244      C1255   1.235       .  S
O1245     Mg1264   2.134   1_455  S
O1246     Mg1258   2.296       .  S
Mg1247     O1263   2.251       .  S
O1248     Mg1264   2.239       .  S
H1249      C1254   1.081       .  S
O1250     Mg1258   2.135       .  S
O1250      C1253   1.237       .  S
H1251      C1253   1.081       .  S
H1252      C1255   1.081       .  S
O1257     Mg1264   2.308       .  S
C1260      C1690   1.481       .  S
C1260      O1265   1.275       .  A
O1261      C1262   1.272       .  A
C1262      C1619   1.486       .  S
C1267      C1410   1.584   1_455  S
C1267      C1479   1.581       .  S
C1267      C1675   1.583       .  S
C1267      C1718   1.579   1_455  S
C1268      C1298   1.590   1_545  S
C1268      C1494   1.577   1_545  S
C1268      C1550   1.587       .  S
C1268      C1759   1.595       .  S
C1269      C1326   1.580       .  S
C1269      C1382   1.583       .  S
C1269      C1578   1.581       .  S
C1269      C1647   1.588       .  S
C1270      C1275   1.409       .  A
C1271      C1272   1.408       .  A
C1271      N1276   1.437       .  S
C1272      H1277   1.084       .  S
C1273      C1278   1.473       .  S
C1273      C1274   1.403       .  A
C1274      C1275   1.405       .  A
C1274      N1279   1.431       .  S
C1275      H1280   1.084       .  S
N1276      H1296   1.046       .  S
N1276      H1297   1.045       .  S
C1278      C1281   1.401       .  A
N1279      H1294   1.045       .  S
N1279      H1295   1.043       .  S
C1281      H1286   1.084       .  S
C1281      C1282   1.406       .  A
C1282      C1283   1.413       .  A
C1282      N1287   1.432       .  S
C1283      C1284   1.406       .  A
C1285      N1289   1.439       .  S
N1287      H1290   1.046       .  S
N1287      H1291   1.045       .  S
N1289      H1292   1.046       .  S
N1289      H1293   1.046       .  S
C1298      C1299   1.426       .  A
C1298      C1303   1.420       .  A
C1299      C1300   1.424       .  A
C1299      N1304   1.429       .  S
C1300      H1305   1.081       .  S
C1300      C1301   1.411       .  A
C1301      C1306   1.524       .  S
C1301      C1302   1.412       .  A
C1302      C1303   1.409       .  A
C1302      N1307   1.433       .  S
C1303      H1308   1.083       .  S
N1304      H1324   1.047       .  S
N1304      H1325   1.035       .  S
C1306      C1309   1.406       .  A
C1306      C1313   1.423       .  A
N1307      H1322   1.046       .  S
N1307      H1323   1.046       .  S
C1309      H1314   1.083       .  S
C1309      C1310   1.408       .  A
C1310      C1311   1.417       .  A
C1310      N1315   1.433       .  S
C1311      C1312   1.410       .  A
C1312      C1313   1.429       .  A
C1313      N1317   1.437       .  S
N1315      H1318   1.046       .  S
N1315      H1319   1.045       .  S
N1317      H1321   1.046       .  S
C1326      C1327   1.430       .  A
C1326      C1331   1.419       .  A
C1327      C1328   1.414       .  A
C1327      N1332   1.432       .  S
C1328      H1333   1.084   1_556  S
C1328      C1329   1.399       .  A
C1329      C1334   1.495       .  S
C1329      C1330   1.404       .  A
C1330      C1331   1.405       .  A
C1330      N1335   1.433       .  S
C1331      H1336   1.078       .  S
N1332      H1352   1.046   1_556  S
N1332      H1353   1.046       .  S
C1334      C1337   1.405   1_556  A
C1334      C1341   1.407       .  A
N1335      H1350   1.046       .  S
N1335      H1351   1.046       .  S
C1337      H1342   1.077       .  S
C1337      C1338   1.414       .  A
C1338      C1339   1.412       .  A
C1338      N1343   1.432       .  S
C1339      C1340   1.406   1_554  A
C1340      H1344   1.084       .  S
C1340      C1341   1.403       .  A
C1341      N1345   1.432       .  S
N1343      H1346   1.046       .  S
N1343      H1347   1.046       .  S
N1345      H1348   1.045       .  S
N1345      H1349   1.045       .  S
C1354      C1359   1.409       .  A
C1355      N1360   1.433       .  S
C1356      C1357   1.403       .  A
C1357      C1362   1.488       .  S
C1357      C1358   1.408       .  A
C1358      C1359   1.404       .  A
C1358      N1363   1.432       .  S
C1359      H1364   1.084       .  S
N1360      H1380   1.046       .  S
N1360      H1381   1.045       .  S
C1362      C1369   1.411       .  A
N1363      H1378   1.046       .  S
N1363      H1379   1.046       .  S
C1365      H1370   1.084       .  S
C1365      C1366   1.399       .  A
C1366      N1371   1.433       .  S
C1367      C1368   1.409       .  A
C1368      H1372   1.083       .  S
C1368      C1369   1.410       .  A
C1369      N1373   1.437       .  S
N1371      H1374   1.046       .  S
N1371      H1375   1.046       .  S
N1373      H1376   1.046       .  S
N1373      H1377   1.045       .  S
C1382      C1383   1.431       .  A
C1382      C1387   1.419       .  A
C1383      C1384   1.406       .  A
C1383      N1388   1.431       .  S
C1384      H1389   1.084       .  S
C1384      C1385   1.396       .  A
C1385      C1390   1.501       .  S
C1385      C1386   1.408       .  A
C1386      C1387   1.418       .  A
C1386      N1391   1.431       .  S
C1387      H1392   1.078       .  S
N1388      H1408   1.046       .  S
N1388      H1409   1.046       .  S
C1390      C1393   1.409       .  A
C1390      C1397   1.409       .  A
N1391      H1406   1.043       .  S
N1391      H1407   1.046       .  S
C1393      H1398   1.084       .  S
C1393      C1394   1.414       .  A
C1394      C1395   1.417       .  A
C1394      N1399   1.431       .  S
C1395      C1396   1.409       .  A
C1396      C1397   1.407       .  A
C1397      N1401   1.432       .  S
N1399      H1402   1.045       .  S
N1399      H1403   1.045       .  S
N1401      H1405   1.046       .  S
C1410      C1411   1.429       .  A
C1410      C1415   1.421       .  A
C1411      C1412   1.416       .  A
C1411      N1416   1.429       .  S
C1412      H1417   1.084   1_556  S
C1412      C1413   1.400       .  A
C1413      C1418   1.507       .  S
C1413      C1414   1.409       .  A
C1414      C1415   1.416       .  A
C1414      N1419   1.438       .  S
C1415      H1420   1.079       .  S
N1416      H1436   1.041   1_556  S
N1416      H1437   1.046       .  S
C1418      C1421   1.405   1_556  A
C1418      C1425   1.415       .  A
N1419      H1434   1.045       .  S
N1419      H1435   1.045       .  S
C1421      H1426   1.083       .  S
C1421      C1422   1.417       .  A
C1422      C1423   1.414   1_554  A
C1423      C1424   1.408       .  A
C1424      H1428   1.084       .  S
C1424      C1425   1.419       .  A
C1425      N1429   1.438       .  S
N1427      H1430   1.046       .  S
N1427      H1431   1.046       .  S
N1429      H1432   1.046       .  S
N1429      H1433   1.045       .  S
C1438      C1439   1.416       .  A
C1439      C1440   1.402       .  A
C1439      N1444   1.432       .  S
C1440      H1445   1.084       .  S
C1440      C1441   1.400       .  A
C1441      C1446   1.482       .  S
C1442      C1443   1.397       .  A
C1442      N1447   1.433       .  S
C1443      H1448   1.083       .  S
N1444      H1464   1.046       .  S
N1444      H1465   1.046       .  S
C1446      C1449   1.400       .  A
N1447      H1462   1.046       .  S
N1447      H1463   1.046   1_554  S
C1449      H1454   1.084       .  S
C1449      C1450   1.400       .  A
C1450      C1451   1.413       .  A
C1450      N1455   1.433       .  S
C1452      H1456   1.084       .  S
C1452      C1453   1.402       .  A
C1453      N1457   1.432       .  S
N1455      H1458   1.046       .  S
N1455      H1459   1.046       .  S
N1457      H1460   1.045       .  S
N1457      H1461   1.046       .  S
C1466      C1467   1.417       .  A
C1466      C1471   1.406       .  A
C1467      C1468   1.412       .  A
C1467      N1472   1.438       .  S
C1468      H1473   1.084       .  S
C1468      C1469   1.403       .  A
C1469      C1474   1.510       .  S
C1469      C1470   1.418       .  A
C1470      C1471   1.421       .  A
C1470      N1475   1.437       .  S
C1471      H1476   1.083       .  S
N1472      H1492   1.046       .  S
N1472      H1493   1.046       .  S
C1474      C1477   1.402       .  A
C1474      C1481   1.411       .  A
N1475      H1490   1.046       .  S
N1475      H1491   1.046       .  S
C1477      H1482   1.084       .  S
C1477      C1478   1.414       .  A
C1478      C1479   1.429       .  A
C1478      N1483   1.429       .  S
C1479      C1480   1.419       .  A
C1480      H1484   1.079       .  S
C1480      C1481   1.416       .  A
C1481      N1485   1.438       .  S
N1483      H1486   1.046       .  S
N1483      H1487   1.041       .  S
N1485      H1488   1.046       .  S
N1485      H1489   1.045       .  S
C1494      C1495   1.423       .  A
C1494      C1499   1.422       .  A
C1495      C1496   1.418   1_556  A
C1495      N1500   1.426   1_556  S
C1496      H1501   1.080       .  S
C1496      C1497   1.406   1_554  A
C1497      C1502   1.506   1_556  S
C1497      C1498   1.404       .  A
C1498      C1499   1.404       .  A
C1498      N1503   1.433       .  S
C1499      H1504   1.080       .  S
N1500      H1520   1.042       .  S
N1500      H1521   1.045   1_565  S
C1502      C1505   1.402       .  A
C1502      C1509   1.426   1_554  A
N1503      H1518   1.046       .  S
N1503      H1519   1.046       .  S
C1505      H1510   1.084       .  S
C1505      C1506   1.407       .  A
C1506      C1507   1.415       .  A
C1506      N1511   1.433       .  S
C1507      C1508   1.404       .  A
C1508      H1512   1.084       .  S
C1508      C1509   1.416   1_554  A
C1509      N1513   1.439       .  S
N1511      H1514   1.046       .  S
N1511      H1515   1.046       .  S
N1513      H1516   1.043       .  S
N1513      H1517   1.046       .  S
C1522      C1523   1.416       .  A
C1523      C1524   1.399       .  A
C1523      N1528   1.433       .  S
C1524      H1529   1.084       .  S
C1524      C1525   1.399       .  A
C1525      C1530   1.478       .  S
C1526      C1527   1.402       .  A
C1526      N1531   1.432       .  S
C1527      H1532   1.083       .  S
N1528      H1548   1.046       .  S
N1528      H1549   1.046   1_545  S
C1530      C1533   1.400       .  A
N1531      H1546   1.046       .  S
N1531      H1547   1.046       .  S
C1533      H1538   1.084       .  S
C1533      C1534   1.398       .  A
C1534      C1535   1.410   1_556  A
C1534      N1539   1.433       .  S
C1536      H1540   1.084       .  S
C1536      C1537   1.405       .  A
C1537      N1541   1.439       .  S
N1539      H1542   1.046       .  S
N1539      H1543   1.046       .  S
N1541      H1544   1.046       .  S
N1541      H1545   1.046       .  S
C1550      C1551   1.438       .  A
C1550      C1555   1.421       .  A
C1551      C1552   1.413       .  A
C1551      N1556   1.431       .  S
C1552      H1557   1.084       .  S
C1552      C1553   1.398       .  A
C1553      C1558   1.504       .  S
C1553      C1554   1.406       .  A
C1554      C1555   1.415       .  A
C1554      N1559   1.431       .  S
C1555      H1560   1.083       .  S
N1556      H1576   1.046       .  S
N1556      H1577   1.046       .  S
C1558      C1561   1.409       .  A
C1558      C1565   1.408       .  A
N1559      H1574   1.046       .  S
N1559      H1575   1.044       .  S
C1561      H1566   1.083       .  S
C1561      C1562   1.419       .  A
C1562      C1563   1.415       .  A
C1562      N1567   1.431       .  S
C1563      C1564   1.415       .  A
C1564      H1568   1.083       .  S
C1564      C1565   1.412       .  A
C1565      N1569   1.438       .  S
N1567      H1570   1.045       .  S
N1567      H1571   1.046       .  S
N1569      H1572   1.046       .  S
N1569      H1573   1.044       .  S
C1578      C1579   1.427       .  A
C1578      C1583   1.417       .  A
C1579      C1580   1.413       .  A
C1579      N1584   1.433       .  S
C1580      H1585   1.084       .  S
C1580      C1581   1.404       .  A
C1581      C1586   1.516       .  S
C1581      C1582   1.413       .  A
C1582      C1583   1.415       .  A
C1582      N1587   1.431   1_556  S
C1583      H1588   1.080       .  S
N1584      H1604   1.046       .  S
N1584      H1605   1.046       .  S
C1586      C1589   1.414       .  A
C1586      C1593   1.413   1_556  A
N1587      H1602   1.045       .  S
N1587      H1603   1.045       .  S
C1589      H1594   1.083       .  S
C1589      C1590   1.422       .  A
C1590      C1591   1.412   1_556  A
C1590      N1595   1.436       .  S
C1591      C1592   1.409       .  A
C1592      C1593   1.410       .  A
C1593      N1597   1.432       .  S
N1595      H1598   1.046       .  S
N1595      H1599   1.045       .  S
N1597      H1601   1.046       .  S
C1606      C1611   1.401       .  A
C1607      N1612   1.431       .  S
C1608      C1609   1.403       .  A
C1609      C1614   1.477       .  S
C1609      C1610   1.411       .  A
C1610      C1611   1.400       .  A
C1610      N1615   1.439       .  S
C1611      H1616   1.084       .  S
N1612      H1632   1.046   1_554  S
N1612      H1633   1.045       .  S
C1614      C1621   1.410       .  A
N1615      H1630   1.046       .  S
N1615      H1631   1.046       .  S
C1617      H1622   1.084       .  S
C1617      C1618   1.404       .  A
C1618      N1623   1.433       .  S
C1619      C1620   1.407       .  A
C1620      H1624   1.083       .  S
C1620      C1621   1.404       .  A
C1621      N1625   1.438       .  S
N1623      H1626   1.046       .  S
N1623      H1627   1.046       .  S
N1625      H1628   1.046       .  S
N1625      H1629   1.046       .  S
C1634      C1635   1.414       .  A
C1634      C1639   1.407       .  A
C1635      C1636   1.410       .  A
C1635      N1640   1.432       .  S
C1636      H1641   1.082       .  S
C1636      C1637   1.405       .  A
C1637      C1642   1.517       .  S
C1637      C1638   1.420       .  A
C1638      C1639   1.422       .  A
C1638      N1643   1.432       .  S
C1639      H1644   1.083       .  S
N1640      H1660   1.046       .  S
N1640      H1661   1.046       .  S
C1642      C1645   1.404       .  A
C1642      C1649   1.412       .  A
N1643      H1658   1.045       .  S
N1643      H1659   1.046       .  S
C1645      H1650   1.084       .  S
C1645      C1646   1.414       .  A
C1646      C1647   1.430       .  A
C1646      N1651   1.432       .  S
C1647      C1648   1.421       .  A
C1648      H1652   1.079       .  S
C1648      C1649   1.417       .  A
C1649      N1653   1.432       .  S
N1651      H1654   1.045       .  S
N1651      H1655   1.046       .  S
N1653      H1656   1.046       .  S
N1653      H1657   1.046       .  S
C1662      C1663   1.419       .  A
C1662      C1667   1.406       .  A
C1663      C1664   1.414       .  A
C1664      H1669   1.084       .  S
C1664      C1665   1.402       .  A
C1665      C1670   1.506   1_554  S
C1665      C1666   1.415   1_554  A
C1666      C1667   1.417   1_556  A
C1666      N1671   1.432       .  S
C1667      H1672   1.083   1_554  S
N1668      H1688   1.046       .  S
N1668      H1689   1.046       .  S
C1670      C1673   1.405       .  A
C1670      C1677   1.410       .  A
N1671      H1686   1.045       .  S
N1671      H1687   1.046       .  S
C1673      H1678   1.084   1_556  S
C1673      C1674   1.420       .  A
C1674      C1675   1.428       .  A
C1674      N1679   1.431       .  S
C1675      C1676   1.420       .  A
C1676      H1680   1.079       .  S
C1676      C1677   1.403       .  A
C1677      N1681   1.433       .  S
N1679      H1682   1.045       .  S
N1679      H1683   1.046   1_556  S
N1681      H1684   1.043       .  S
N1681      H1685   1.045       .  S
C1690      C1695   1.406       .  A
C1691      C1692   1.405       .  A
C1691      N1696   1.432       .  S
C1692      H1697   1.084       .  S
C1693      C1698   1.486       .  S
C1693      C1694   1.410       .  A
C1694      C1695   1.407       .  A
C1694      N1699   1.437       .  S
C1695      H1700   1.084       .  S
N1696      H1716   1.046       .  S
N1696      H1717   1.046       .  S
C1698      C1701   1.403       .  A
C1698      C1705   1.407       .  A
N1699      H1714   1.046       .  S
N1699      H1715   1.046       .  S
C1701      H1706   1.084       .  S
C1701      C1702   1.402       .  A
C1702      C1703   1.413       .  A
C1702      N1707   1.431   1_556  S
C1703      C1704   1.409       .  A
C1704      H1708   1.084       .  S
C1704      C1705   1.406       .  A
C1705      N1709   1.432       .  S
N1707      H1710   1.046   1_554  S
N1707      H1711   1.046       .  S
N1709      H1712   1.045       .  S
N1709      H1713   1.046       .  S
C1718      C1719   1.428       .  A
C1718      C1723   1.418       .  A
C1719      C1720   1.416       .  A
C1719      N1724   1.432       .  S
C1720      H1725   1.082       .  S
C1720      C1721   1.404       .  A
C1721      C1726   1.505       .  S
C1721      C1722   1.409       .  A
C1722      C1723   1.408       .  A
C1722      N1727   1.439       .  S
C1723      H1728   1.078       .  S
N1724      H1744   1.045   1_655  S
N1724      H1745   1.046       .  S
C1726      C1729   1.403       .  A
C1726      C1733   1.415       .  A
N1727      H1742   1.045       .  S
N1727      H1743   1.046       .  S
C1729      H1734   1.084       .  S
C1729      C1730   1.404       .  A
C1730      C1731   1.414       .  A
C1731      C1732   1.410       .  A
C1732      H1736   1.083       .  S
C1732      C1733   1.419       .  A
C1733      N1737   1.432       .  S
N1735      H1738   1.046       .  S
N1735      H1739   1.045       .  S
N1737      H1740   1.045       .  S
N1737      H1741   1.045       .  S
C1746      C1747   1.414       .  A
C1746      C1751   1.408   1_554  A
C1747      C1748   1.422       .  A
C1747      N1752   1.431       .  S
C1748      H1753   1.083       .  S
C1748      C1749   1.410   1_554  A
C1749      C1754   1.509       .  S
C1749      C1750   1.410       .  A
C1750      C1751   1.411       .  A
C1750      N1755   1.432       .  S
C1751      H1756   1.084       .  S
C1754      C1757   1.403       .  A
C1754      C1761   1.410       .  A
N1755      H1770   1.045       .  S
N1755      H1771   1.046       .  S
C1757      H1762   1.084       .  S
C1757      C1758   1.420       .  A
C1758      C1759   1.433       .  A
C1758      N1763   1.431       .  S
C1759      C1760   1.423       .  A
C1760      H1764   1.078       .  S
C1760      C1761   1.408       .  A
C1761      N1765   1.433       .  S
N1763      H1766   1.046       .  S
N1763      H1767   1.045   1_556  S
N1765      H1768   1.045       .  S
N1765      H1769   1.046       .  S
