geometry optimzed in LAMMPS
_audit_creation_date              2020-11-30 
_audit_creation_method            'lammps2cif' 
_symmetry_space_group_name_H-M    'P1' 
_symmetry_Int_Tables_number       1 
_symmetry_cell_setting            triclinic 
loop_ 
_symmetry_equiv_pos_as_xyz 
  x,y,z 
_cell_length_a                    51.82992923 
_cell_length_b                    51.74968556904931 
_cell_length_c                    43.486686508348036 
_cell_angle_alpha                 90.2270881928969 
_cell_angle_beta                  90.02145034740533 
_cell_angle_gamma                 119.86031247519259 
loop_ 
_atom_site_label 
_atom_site_type_symbol 
_atom_site_fract_x 
_atom_site_fract_y 
_atom_site_fract_z 
_atom_site_charge 
C1          C  0.23189421  0.20961339  0.14902794     0.80200
N2          N  0.23098831  0.21202076  0.11793799    -0.78100
C3          C  0.25334089  0.23566592  0.10306935     0.82600
N4          N  0.27649623  0.25707192  0.11949951    -0.78100
C5          C  0.27750235  0.25501222  0.15055473     0.82700
N6          N  0.25497757  0.23144127  0.16517631    -0.79800
C7          C  0.22727958  0.22058194  0.02196578     0.80200
N8          N  0.22896509  0.21763447  0.05284545    -0.78100
C9          C  0.25212366  0.23873675  0.06950738     0.82600
N10         N  0.27415864  0.26285163  0.05502958    -0.78100
C11         C  0.27310497  0.26604792  0.02414530     0.82700
N12         N  0.24953641  0.24498271  0.00780040    -0.79800
C13         C  0.25054767  0.48488560  0.14883296     0.80200
N14         N  0.22666073  0.48338290  0.16356287    -0.78100
C15         C  0.20446560  0.48405747  0.14757254     0.82600
N16         N  0.20593727  0.48541142  0.11650460    -0.78100
C17         C  0.22932453  0.48646278  0.10135715     0.82700
N18         N  0.25160917  0.48614131  0.11753543    -0.79800
C19         C  0.25043570  0.48632313  0.01967727     0.80200
N20         N  0.25137146  0.48653861  0.05098875    -0.78100
C21         C  0.22962817  0.48744401  0.06762094     0.82600
N22         N  0.20704091  0.48830980  0.05289878    -0.78100
C23         C  0.20567748  0.48810662  0.02184558     0.82700
N24         N  0.22757145  0.48735468  0.00531492    -0.79800
C25         C  0.47466104  0.23193849  0.15098721     0.80200
N26         N  0.47592674  0.23266152  0.11976762    -0.78100
C27         C  0.47523065  0.20971890  0.10377449     0.82600
N28         N  0.47366779  0.18617980  0.11914233    -0.78100
C29         C  0.47258266  0.18528437  0.15031244     0.82700
N30         N  0.47339892  0.20839453  0.16611228    -0.79800
C31         C  0.48242530  0.23561580  0.02315615     0.80200
N32         N  0.48297740  0.21281336  0.00805009    -0.78100
C33         C  0.48035750  0.18893518  0.02361578     0.82600
N34         N  0.47764128  0.18801116  0.05463924    -0.78100
C35         C  0.47731933  0.21069094  0.07009002     0.82700
N36         N  0.47949289  0.23432583  0.05427993    -0.79800
O37         O  0.01484971  0.41469620  0.37192581    -0.88200
C38         C  0.07210687  0.06538001  0.29007060     1.11800
O39         O  0.48847099  0.44743593  0.33571157    -1.36000
O40         O  0.07709868  0.04713748  0.36960151    -0.89700
O41         O  0.46527911  0.38781053  0.37050637    -0.90400
O42         O  0.45559176  0.44682893  0.39964257    -0.79200
O43         O  0.04648121  0.48086008  0.36543575    -1.01300
C44         C  0.48400829  0.03159367  0.38966859     1.21800
O45         O  0.45526002  0.47632072  0.33404098    -1.36200
Mn46       Mn  0.48731464  0.47724716  0.30153668     1.82100
O47         O  0.48467352  0.00903603  0.39901188    -0.78300
O48         O  0.05022487  0.06992476  0.36874834    -0.87700
C49         C  0.48498921  0.02966727  0.27731583     1.12900
C50         C  0.07151627  0.06706714  0.37935626     1.07700
O51         O  0.45729764  0.44529568  0.26990245    -0.79200
O52         O  0.01741649  0.00935674  0.33490571    -1.32900
O53         O  0.43062550  0.41785114  0.30602539    -0.98400
C54         C  0.39775732  0.47459496  0.37646079     1.06400
Mn55       Mn  0.01812261  0.05064249  0.33390719     1.48600
O56         O  0.39452970  0.44989248  0.36694861    -0.87600
Mn57       Mn  0.44992312  0.40450654  0.33555512     1.49600
O58         O  0.01627368  0.41383802  0.30305115    -0.91500
C59         C  0.04150809  0.48120252  0.39283421     1.19600
C60         C  0.49194293  0.39311869  0.29218604     1.11600
Mn61       Mn  0.48648605  0.47820056  0.36828816     1.81000
O62         O  0.48486486  0.03413033  0.30476218    -0.96700
Mn63       Mn  0.02926024  0.44681482  0.33695881     1.49300
C64         C  0.49027002  0.39335048  0.38149057     1.08100
Mn65       Mn  0.45115739  0.01500067  0.33286052     1.49900
C66         C  0.39972776  0.47342733  0.28727064     1.11000
O67         O  0.42954295  0.41830679  0.36358035    -1.00800
O68         O  0.05111683  0.06922033  0.29986657    -0.92100
C69         C  0.43328653  0.42288981  0.39112905     1.22300
O70         O  0.48418243  0.03484604  0.36203965    -1.02900
O71         O  0.07732239  0.04558613  0.30079737    -0.90300
O72         O  0.41915333  0.99868580  0.29785146    -0.89900
O73         O  0.46662862  0.38787895  0.30182553    -0.89900
Mn74       Mn  0.06044263  0.01361403  0.33575972     1.47900
O75         O  0.48638739  0.00715773  0.26914672    -0.78400
C76         C  0.43491380  0.42171107  0.27850473     1.15400
O77         O  0.01773847  0.48024145  0.40046467    -0.77100
O78         O  0.01891104  0.47783724  0.27121740    -0.76700
Mn79       Mn  0.41408812  0.43569556  0.33372748     1.51100
O80         O  0.41790402  0.99961139  0.36633471    -0.89100
O81         O  0.04749956  0.47974066  0.30724176    -0.96600
O82         O  0.39605142  0.44904683  0.29810288    -0.91600
C83         C  0.04251418  0.47888762  0.27964195     1.13200
C84         C  0.48330160  0.05386542  0.41089258    -0.12000
C85         C  0.48183000  0.07893409  0.39989725     0.03400
C86         C  0.48149885  0.09937824  0.42063904    -0.12600
C87         C  0.48353996  0.09634927  0.45233767     0.18300
C88         C  0.48491383  0.07156150  0.46351860    -0.09600
C89         C  0.48461359  0.05051484  0.44287317    -0.02600
H90         H  0.48014366  0.11825527  0.41189632     0.04800
C91         C  0.48424324  0.11962313  0.47285251     0.20300
H92         H  0.48594282  0.03174241  0.45191995     0.10000
C93         C  0.46033975  0.11242301  0.49280051    -0.15900
C94         C  0.45880099  0.13464700  0.00984575     0.03000
C95         C  0.48138675  0.16464418  0.00690610    -0.11300
C96         C  0.50536986  0.17177763  0.48720475    -0.01300
C97         C  0.00704279  0.14959711  0.47040783    -0.06500
H98         H  0.44237145  0.08960421  0.49435518     0.06000
H99         H  0.02294444  0.19471926  0.48495564     0.09400
Br100      Br  0.48877569  0.06634179  0.00657253    -0.06200
Br101      Br  0.48102056  0.08805827  0.35713502    -0.03100
Br102      Br  0.42414930  0.12323084  0.03455338    -0.00300
Br103      Br  0.04114187  0.16147563  0.44468635    -0.04600
C104        C  0.49042161  0.37329954  0.40592337    -0.12000
C105        C  0.01439762  0.36775166  0.40972390     0.03400
C106        C  0.51233176  0.34666203  0.43111272    -0.12600
C107        C  0.48663649  0.33040951  0.44872464     0.18300
C108        C  0.46290486  0.33606847  0.44552014    -0.09600
C109        C  0.46493914  0.35739173  0.42437943    -0.02600
H110        H  0.03047582  0.34203841  0.43318270     0.04800
C111        C  0.48432609  0.30607982  0.46840257     0.20300
H112        H  0.44622873  0.36108665  0.42195742     0.10000
C113        C  0.49468201  0.31207053  0.49881591    -0.15900
C114        C  0.49430473  0.28971416  0.01733040     0.03000
C115        C  0.48341652  0.26059154  0.50523454    -0.11300
C116        C  0.47306638  0.25492936  0.47464913    -0.01300
C117        C  0.47342642  0.27724717  0.45637925    -0.06500
H118        H  0.50351496  0.33439387  0.00803145     0.06000
H119        H  0.46441507  0.23288349  0.46476927     0.09400
Br120      Br  0.42691957  0.31431842  0.46869585    -0.06200
Br121      Br  0.04939564  0.38547809  0.38452186    -0.03100
Br122      Br  0.01068764  0.30133778  0.05799827    -0.00300
Br123      Br  0.45902850  0.26740244  0.41491055    -0.04600
C124        C  0.47318056  0.16074252  0.16708305    -0.12000
C125        C  0.45659930  0.13065950  0.15744023     0.03400
C126        C  0.45846488  0.10846633  0.17401347    -0.12600
C127        C  0.47672815  0.11572656  0.20007487     0.18300
C128        C  0.99377897  0.14573884  0.20926938    -0.09600
C129        C  0.99161018  0.16784305  0.19307710    -0.02600
H130        H  0.44522022  0.08539771  0.16688274     0.04800
C131        C  0.47683981  0.09179485  0.21839806     0.20300
H132        H  0.00492295  0.19082527  0.20048738     0.10000
C133        C  0.99150821  0.07697093  0.20739127    -0.15900
C134        C  0.99401967  0.05600942  0.22569130     0.03000
C135        C  0.48173129  0.04980394  0.25553532    -0.11300
C136        C  0.46647199  0.06428470  0.26595183    -0.01300
C137        C  0.46358224  0.08468206  0.24759680    -0.06500
H138        H  0.00177356  0.08238286  0.18490467     0.06000
H139        H  0.45646176  0.05958711  0.28856089     0.09400
Br140      Br  0.02101377  0.15765247  0.24330371    -0.06200
Br141      Br  0.42966779  0.11816761  0.12315418    -0.03100
Br142      Br  0.01640764  0.03858013  0.20969900    -0.00300
Br143      Br  0.44111560  0.10212899  0.26344932    -0.04600
C144        C  0.49265644  0.37391919  0.26716535    -0.12000
C145        C  0.01522223  0.36617428  0.26481795     0.03400
C146        C  0.01271765  0.34523614  0.24276787    -0.12600
C147        C  0.48838634  0.33216663  0.22257721     0.18300
C148        C  0.46702753  0.34129799  0.22349703    -0.09600
C149        C  0.46917808  0.36181584  0.24573051    -0.02600
H150        H  0.02931376  0.33832100  0.24204695     0.04800
C151        C  0.48408414  0.30699194  0.20292028     0.20300
H152        H  0.45223619  0.36822296  0.24634286     0.10000
C153        C  0.46305243  0.27800516  0.21180619    -0.15900
C154        C  0.45906075  0.25330797  0.19477026     0.03000
C155        C  0.47658098  0.25743763  0.16842018    -0.11300
C156        C  0.49694975  0.28660173  0.15899149    -0.01300
C157        C  0.50083132  0.31129438  0.17608329    -0.06500
H158        H  0.44972038  0.27461140  0.23216707     0.06000
H159        H  0.01034949  0.29019473  0.13865217     0.09400
Br160      Br  0.43455365  0.32622165  0.19484269    -0.06200
Br161      Br  0.04882081  0.38136815  0.29214341    -0.03100
Br162      Br  0.42813552  0.21475229  0.20762944    -0.00300
Br163      Br  0.02885640  0.35045886  0.16188752    -0.04600
C164        C  0.37705039  0.47468855  0.40009644    -0.12000
C165        C  0.34769637  0.45056409  0.40400285     0.03400
C166        C  0.32859232  0.45297798  0.42514459    -0.12600
C167        C  0.33785544  0.47914456  0.44226105     0.18300
C168        C  0.36702741  0.00295478  0.43880153    -0.09600
C169        C  0.38633675  0.00056951  0.41804395    -0.02600
H170        H  0.30601769  0.43468952  0.42753208     0.04800
C171        C  0.31624698  0.48174133  0.46237088     0.20300
H172        H  0.40864123  0.01933532  0.41563253     0.10000
C173        C  0.31158460  0.47050911  0.49232520    -0.15900
C174        C  0.29069653  0.47197668  0.01167317     0.03000
C175        C  0.27385320  0.48494981  0.50093433    -0.11300
C176        C  0.27886722  0.49623594  0.47075616    -0.01300
C177        C  0.29976147  0.49471494  0.45161462    -0.06500
H178        H  0.32408502  0.96025650  0.00058212     0.06000
H179        H  0.26646589  0.50634584  0.46186290     0.09400
Br180      Br  0.38116401  0.03950304  0.46132066    -0.06200
Br181      Br  0.33101309  0.41472089  0.37963957    -0.03100
Br182      Br  0.28553505  0.95413958  0.05151510    -0.00300
Br183      Br  0.30481091  0.51021895  0.41067920    -0.04600
C184        C  0.18059619  0.48875716  0.00620096    -0.12000
C185        C  0.15113676  0.47335721  0.01773967     0.03400
C186        C  0.12804690  0.47365242  0.50128491    -0.12600
C187        C  0.13369146  0.48920386  0.47356509     0.18300
C188        C  0.16317278  0.00582227  0.46292130    -0.09600
C189        C  0.18621543  0.00516740  0.47896196    -0.02600
H190        H  0.10539394  0.46076408  0.50955592     0.04800
C191        C  0.10848374  0.48554237  0.45442477     0.20300
H192        H  0.20868882  0.01765913  0.47012419     0.10000
C193        C  0.09162520  0.99875603  0.46328406    -0.15900
C194        C  0.06888944  0.99693881  0.44419546     0.03000
C195        C  0.06307601  0.48187355  0.41562548    -0.11300
C196        C  0.07944821  0.46792133  0.40753951    -0.01300
C197        C  0.10156977  0.46924204  0.42678282    -0.06500
H198        H  0.09667406  0.01112637  0.48469007     0.06000
H199        H  0.07508258  0.45590980  0.38596574     0.09400
Br200      Br  0.17288532  0.02955731  0.42639329    -0.06200
Br201      Br  0.14021702  0.44948726  0.05431777    -0.03100
Br202      Br  0.04821518  0.01718681  0.45737784    -0.00300
Br203      Br  0.12173480  0.44824440  0.41437636    -0.04600
C204        C  0.27484137  0.48433365  0.16659078    -0.12000
C205        C  0.28215293  0.49542074  0.19709113     0.03400
C206        C  0.30417329  0.49299660  0.21328661    -0.12600
C207        C  0.31966820  0.48020946  0.19968145     0.18300
C208        C  0.31341745  0.47022276  0.16907089    -0.09600
C209        C  0.29114627  0.47225725  0.15279856    -0.02600
H210        H  0.30935671  0.00125083  0.23671501     0.04800
C211        C  0.34183697  0.47714595  0.21832125     0.20300
H212        H  0.28632577  0.46396381  0.12938569     0.10000
C213        C  0.33326592  0.45025978  0.23349254    -0.15900
C214        C  0.35217796  0.44775195  0.25480645     0.03000
C215        C  0.38028129  0.47291765  0.26169055    -0.11300
C216        C  0.38929316  0.49923863  0.24481366    -0.01300
C217        C  0.37044942  0.50145723  0.22332118    -0.06500
H218        H  0.31127129  0.43134048  0.22942973     0.06000
H219        H  0.41095322  0.01857702  0.24876682     0.09400
Br220      Br  0.33513363  0.45410744  0.14869581    -0.06200
Br221      Br  0.26464835  0.01586551  0.21771293    -0.03100
Br222      Br  0.33700839  0.40971021  0.27441097    -0.00300
Br223      Br  0.38438935  0.03826314  0.20168899    -0.04600
C224        C  0.06433868  0.47967173  0.25711175    -0.12000
C225        C  0.05575034  0.46330399  0.22923194     0.03400
C226        C  0.07750466  0.46379414  0.20961659    -0.12600
C227        C  0.10781434  0.48088890  0.21702994     0.18300
C228        C  0.11638109  0.49828704  0.24399337    -0.09600
C229        C  0.09477361  0.49706244  0.26405720    -0.02600
H230        H  0.07076223  0.45041296  0.18883823     0.04800
C231        C  0.13044155  0.47945470  0.19750401     0.20300
H232        H  0.10185596  0.01017748  0.28500245     0.10000
C233        C  0.14070563  0.49694182  0.17097759    -0.15900
C234        C  0.16452117  0.49857664  0.15408918     0.03000
C235        C  0.17856556  0.48249799  0.16388453    -0.11300
C236        C  0.16763174  0.46447098  0.19010423    -0.01300
C237        C  0.14365423  0.46265369  0.20665900    -0.06500
H238        H  0.13075986  0.01008538  0.16395092     0.06000
H239        H  0.17769862  0.45160578  0.19772618     0.09400
Br240      Br  0.15747301  0.02440617  0.25404249    -0.06200
Br241      Br  0.01482890  0.43853452  0.21754783    -0.03100
Br242      Br  0.17806760  0.02504370  0.11949200    -0.00300
Br243      Br  0.12963663  0.43702649  0.24181841    -0.04600
C244        C  0.29775693  0.29186935  0.00828035    -0.12000
C245        C  0.32785404  0.30034578  0.01364002     0.03400
C246        C  0.35052167  0.32404713  0.49725564    -0.12600
C247        C  0.34381109  0.33954167  0.47524775     0.18300
C248        C  0.31385362  0.33144284  0.47018274    -0.09600
C249        C  0.29114126  0.30778287  0.48658690    -0.02600
H250        H  0.37340847  0.32956006  0.50070320     0.04800
C251        C  0.36773186  0.36108995  0.45484463     0.20300
H252        H  0.26820643  0.30164461  0.48220593     0.10000
C253        C  0.36941428  0.35184691  0.42503239    -0.15900
C254        C  0.39098365  0.37112060  0.40435157     0.03000
C255        C  0.41156573  0.40086810  0.41326944    -0.11300
C256        C  0.41040736  0.40975707  0.44366028    -0.01300
C257        C  0.38882302  0.39009810  0.46441076    -0.06500
H258        H  0.35370533  0.32929784  0.41778603     0.06000
H259        H  0.42594497  0.43223872  0.45118222     0.09400
Br260      Br  0.30302495  0.35183095  0.44063093    -0.06200
Br261      Br  0.33922470  0.27829289  0.04034368    -0.03100
Br262      Br  0.39100379  0.35427284  0.36484206    -0.00300
Br263      Br  0.38841477  0.40394123  0.50525078    -0.04600
C264        C  0.20239140  0.19679741  0.50339756    -0.12000
C265        C  0.17468076  0.17539613  0.01623583     0.03400
C266        C  0.15260404  0.15336824  0.49740819    -0.12600
C267        C  0.15732660  0.15200833  0.46589224     0.18300
C268        C  0.18460121  0.17313826  0.45301782    -0.09600
C269        C  0.20671392  0.19518160  0.47160443    -0.02600
H270        H  0.13148144  0.13730515  0.50736813     0.04800
C271        C  0.13340856  0.12901117  0.44636821     0.20300
H272        H  0.22758577  0.21094859  0.46100929     0.10000
C273        C  0.11451506  0.13628632  0.43026702    -0.15900
C274        C  0.09364211  0.11636277  0.40906603     0.03000
C275        C  0.09131083  0.08818931  0.40363843    -0.11300
C276        C  0.10985930  0.08079104  0.42071012    -0.01300
C277        C  0.13059341  0.10080546  0.44193386    -0.06500
H278        H  0.11669954  0.15806151  0.43352129     0.06000
H279        H  0.10862481  0.05946409  0.41726388     0.09400
Br280      Br  0.19265517  0.17247136  0.41004365    -0.06200
Br281      Br  0.16429009  0.17517106  0.05870731    -0.03100
Br282      Br  0.07113778  0.13065050  0.38696679    -0.00300
Br283      Br  0.15536990  0.08915554  0.46363847    -0.04600
C284        C  0.30173009  0.27929648  0.16856143    -0.12000
C285        C  0.33181572  0.29243961  0.15962226     0.03400
C286        C  0.35382897  0.31654336  0.17636032    -0.12600
C287        C  0.34647040  0.32735486  0.20254986     0.18300
C288        C  0.31658105  0.31366388  0.21209269    -0.09600
C289        C  0.29451042  0.28992010  0.19508384    -0.02600
H290        H  0.37685734  0.32636293  0.16942734     0.04800
C291        C  0.37041943  0.35161515  0.22079818     0.20300
H292        H  0.27156695  0.27993622  0.20243196     0.10000
C293        C  0.38307635  0.38131883  0.21104446    -0.15900
C294        C  0.40488808  0.40472091  0.22887023     0.03000
C295        C  0.41409856  0.39836523  0.25701225    -0.11300
C296        C  0.40149383  0.36852778  0.26633937    -0.01300
C297        C  0.38029087  0.34530517  0.24833850    -0.06500
H298        H  0.37549986  0.38632955  0.18985344     0.06000
H299        H  0.40825531  0.36314223  0.28783222     0.09400
Br300      Br  0.30491686  0.32658658  0.24826896    -0.06200
Br301      Br  0.34443204  0.27654823  0.12674209    -0.03100
Br302      Br  0.41939550  0.44475472  0.21495057    -0.00300
Br303      Br  0.36551329  0.30523909  0.26228210    -0.04600
C304        C  0.09181285  0.08492879  0.26526863    -0.12000
C305        C  0.10093777  0.11561860  0.26372593     0.03400
C306        C  0.12150268  0.13359281  0.24138353    -0.12600
C307        C  0.13359555  0.12172568  0.22059781     0.18300
C308        C  0.12417791  0.09114523  0.22167462    -0.09600
C309        C  0.10338815  0.07304081  0.24371652    -0.02600
H310        H  0.12908962  0.15724732  0.24105822     0.04800
C311        C  0.15825824  0.14217298  0.20030387     0.20300
H312        H  0.09655428  0.04959867  0.24426613     0.10000
C313        C  0.18748796  0.15051664  0.20876763    -0.15900
C314        C  0.21171275  0.17141597  0.19161160     0.03000
C315        C  0.20690838  0.18472776  0.16555736    -0.11300
C316        C  0.17750715  0.17523220  0.15627663    -0.01300
C317        C  0.15328356  0.15421061  0.17348319    -0.06500
H318        H  0.19146555  0.14089445  0.22904327     0.06000
H319        H  0.17333707  0.18491777  0.13618975     0.09400
Br320      Br  0.13968863  0.07339603  0.19386547    -0.06200
Br321      Br  0.08883594  0.13513677  0.29331901    -0.03100
Br322      Br  0.25064181  0.17971146  0.20417696    -0.00300
Br323      Br  0.11384422  0.14265343  0.15968175    -0.04600
C324        C  0.23189283  0.20961478  0.64902945     0.80200
N325        N  0.23098651  0.21202081  0.61793935    -0.78100
C326        C  0.25333917  0.23566511  0.60306978     0.82600
N327        N  0.27649492  0.25707154  0.61949915    -0.78100
C328        C  0.27750140  0.25501319  0.65055449     0.82700
N329        N  0.25497660  0.23144307  0.66517702    -0.79800
C330        C  0.22727736  0.22057995  0.52196625     0.80200
N331        N  0.22896247  0.21763287  0.55284610    -0.78100
C332        C  0.25212192  0.23873471  0.56950758     0.82600
N333        N  0.27415783  0.26284846  0.55502919    -0.78100
C334        C  0.27310450  0.26604408  0.52414477     0.82700
N335        N  0.24953518  0.24497948  0.50780042    -0.79800
C336        C  0.25054759  0.48488631  0.64883265     0.80200
N337        N  0.22665968  0.48338214  0.66356192    -0.78100
C338        C  0.20446526  0.48405770  0.64757113     0.82600
N339        N  0.20593863  0.48541407  0.61650340    -0.78100
C340        C  0.22932678  0.48646692  0.60135651     0.82700
N341        N  0.25161073  0.48614448  0.61753520    -0.79800
C342        C  0.25043855  0.48632806  0.51967681     0.80200
N343        N  0.25137457  0.48654414  0.55098828    -0.78100
C344        C  0.22963126  0.48744947  0.56762037     0.82600
N345        N  0.20704365  0.48831452  0.55289813    -0.78100
C346        C  0.20567983  0.48811059  0.52184494     0.82700
N347        N  0.22757387  0.48735874  0.50531431    -0.79800
C348        C  0.47465515  0.23193817  0.65098650     0.80200
N349        N  0.47592233  0.23266061  0.61976703    -0.78100
C350        C  0.47522774  0.20971815  0.60377511     0.82600
N351        N  0.47366489  0.18617963  0.61914415    -0.78100
C352        C  0.47257806  0.18528460  0.65031429     0.82700
N353        N  0.47339292  0.20839477  0.66611285    -0.79800
C354        C  0.48242784  0.23561684  0.52315719     0.80200
N355        N  0.48298160  0.21281516  0.50805130    -0.78100
C356        C  0.48036108  0.18893665  0.52361696     0.82600
N357        N  0.47764246  0.18801153  0.55464028    -0.78100
C358        C  0.47731874  0.21069057  0.57009079     0.82700
N359        N  0.47949297  0.23432566  0.55428064    -0.79800
O360        O  0.01484992  0.41469656  0.87192562    -0.88200
C361        C  0.07210872  0.06537939  0.79007365     1.11800
O362        O  0.48847098  0.44743625  0.83571016    -1.36000
O363        O  0.07709869  0.04713487  0.86960374    -0.89700
O364        O  0.46527721  0.38780946  0.87050336    -0.90400
O365        O  0.45559242  0.44682930  0.89964132    -0.79200
O366        O  0.04648192  0.48086060  0.86543464    -1.01300
C367        C  0.48400806  0.03159375  0.88966915     1.21800
O368        O  0.45526067  0.47632168  0.83404008    -1.36200
Mn369      Mn  0.48731517  0.47724807  0.80153558     1.82100
O370        O  0.48467346  0.00903619  0.89901233    -0.78300
O371        O  0.05022583  0.06992320  0.86875098    -0.87700
C372        C  0.48499082  0.02966923  0.77731651     1.12900
C373        C  0.07151694  0.06706497  0.87935869     1.07700
O374        O  0.45729805  0.44529711  0.76990101    -0.79200
O375        O  0.01741665  0.00935619  0.83490658    -1.32900
O376        O  0.43062557  0.41785258  0.80602372    -0.98400
C377        C  0.39775798  0.47459624  0.87646019     1.06400
Mn378      Mn  0.01812412  0.05064250  0.83390919     1.48600
O379        O  0.39453055  0.44989384  0.86694796    -0.87600
Mn380      Mn  0.44992261  0.40450718  0.83555294     1.49600
O381        O  0.01627413  0.41383803  0.80305068    -0.91500
C382        C  0.04150934  0.48120365  0.89283312     1.19600
C383        C  0.49194242  0.39311964  0.79218368     1.11600
Mn384      Mn  0.48648661  0.47820090  0.86828713     1.81000
O385        O  0.48486666  0.03413165  0.80476299    -0.96700
Mn386      Mn  0.02926066  0.44681498  0.83695815     1.49300
C387        C  0.49026771  0.39334905  0.88148841     1.08100
Mn388      Mn  0.45115872  0.01500306  0.83286051     1.49900
C389        C  0.39972865  0.47342887  0.78726985     1.11000
O390        O  0.42954338  0.41830797  0.86357886    -1.00800
O391        O  0.05111898  0.06922011  0.79986967    -0.92100
C392        C  0.43328680  0.42289063  0.89112762     1.22300
O393        O  0.48418324  0.03484684  0.86204026    -1.02900
O394        O  0.07732339  0.04558466  0.80079963    -0.90300
O395        O  0.41915529  0.99868955  0.79785069    -0.89900
O396        O  0.46662800  0.38788008  0.80182265    -0.89900
Mn397      Mn  0.06044215  0.01361177  0.83576120     1.47900
O398        O  0.48638857  0.00715960  0.76914669    -0.78400
C399        C  0.43491403  0.42171257  0.77850308     1.15400
O400        O  0.01773963  0.48024219  0.90046388    -0.77100
O401        O  0.01891129  0.47783780  0.77121670    -0.76700
Mn402      Mn  0.41408858  0.43569690  0.83372642     1.51100
O403        O  0.41790488  0.99961485  0.86633411    -0.89100
O404        O  0.04749997  0.47974048  0.80724060    -0.96600
O405        O  0.39605194  0.44904836  0.79810231    -0.91600
C406        C  0.04251421  0.47888747  0.77964082     1.13200
C407        C  0.48329909  0.05386418  0.91089318    -0.12000
C408        C  0.48182337  0.07893063  0.89989790     0.03400
C409        C  0.48149063  0.09937389  0.92063967    -0.12600
C410        C  0.48353412  0.09634624  0.95233813     0.18300
C411        C  0.48491140  0.07156034  0.96351910    -0.09600
C412        C  0.48461280  0.05051449  0.94287371    -0.02600
H413        H  0.48013275  0.11824946  0.91189708     0.04800
C414        C  0.48423777  0.11962037  0.97285253     0.20300
H415        H  0.48594489  0.03174361  0.95192040     0.10000
C416        C  0.46033503  0.11242067  0.99280143    -0.15900
C417        C  0.45880530  0.13464883  0.50984542     0.03000
C418        C  0.48139134  0.16464606  0.50690728    -0.11300
C419        C  0.50536443  0.17177525  0.98720261    -0.01300
C420        C  0.00703541  0.14959431  0.97040333    -0.06500
H421        H  0.44236699  0.08960178  0.99435726     0.06000
H422        H  0.02293670  0.19471714  0.98494796     0.09400
Br423      Br  0.48877554  0.06634118  0.50657216    -0.06200
Br424      Br  0.48101006  0.08805292  0.85713577    -0.03100
Br425      Br  0.42415263  0.12323183  0.53455171    -0.00300
Br426      Br  0.04113069  0.16147257  0.94467600    -0.04600
C427        C  0.49041807  0.37329711  0.90592090    -0.12000
C428        C  0.01439808  0.36775389  0.90972674     0.03400
C429        C  0.51232935  0.34666265  0.93111453    -0.12600
C430        C  0.48663164  0.33040621  0.94872185     0.18300
C431        C  0.46289773  0.33606103  0.94551241    -0.09600
C432        C  0.46493280  0.35738505  0.92437228    -0.02600
H433        H  0.03047703  0.34204300  0.93318896     0.04800
C434        C  0.48432166  0.30607707  0.96840031     0.20300
H435        H  0.44622092  0.36107706  0.92194693     0.10000
C436        C  0.49468045  0.31206916  0.99881262    -0.15900
C437        C  0.49430583  0.28971496  0.51733318     0.03000
C438        C  0.48341311  0.26058990  0.00523324    -0.11300
C439        C  0.47306019  0.25492632  0.97464880    -0.01300
C440        C  0.47341980  0.27724359  0.95637841    -0.06500
H441        H  0.50351469  0.33439450  0.50803590     0.06000
H442        H  0.46440726  0.23287980  0.96477002     0.09400
Br443      Br  0.42690851  0.31430445  0.96868061    -0.06200
Br444      Br  0.04939959  0.38548455  0.88453001    -0.03100
Br445      Br  0.01068337  0.30133682  0.55800215    -0.00300
Br446      Br  0.45901936  0.26739730  0.91491065    -0.04600
C447        C  0.47317616  0.16074353  0.66708652    -0.12000
C448        C  0.45659858  0.13066062  0.65744244     0.03400
C449        C  0.45846503  0.10846845  0.67401664    -0.12600
C450        C  0.47672545  0.11572937  0.70008038     0.18300
C451        C  0.99377291  0.14574334  0.70927782    -0.09600
C452        C  0.99160235  0.16784606  0.69308438    -0.02600
H453        H  0.44522326  0.08539982  0.66688460     0.04800
C454        C  0.47683906  0.09179818  0.71840288     0.20300
H455        H  0.00491101  0.19082816  0.70049637     0.10000
C456        C  0.99151160  0.07697802  0.70739589    -0.15900
C457        C  0.99402318  0.05601554  0.72569420     0.03000
C458        C  0.48173204  0.04980623  0.75553712    -0.11300
C459        C  0.46647293  0.06428660  0.76595548    -0.01300
C460        C  0.46358207  0.08468411  0.74760185    -0.06500
H461        H  0.00177751  0.08239164  0.68490949     0.06000
H462        H  0.45646322  0.05958821  0.78856480     0.09400
Br463      Br  0.02100328  0.15765934  0.74331630    -0.06200
Br464      Br  0.42967104  0.11816722  0.62315294    -0.03100
Br465      Br  0.01641198  0.03858779  0.70970039    -0.00300
Br466      Br  0.44111332  0.10212809  0.76345610    -0.04600
C467        C  0.49265631  0.37392151  0.76716187    -0.12000
C468        C  0.01522072  0.36617420  0.76481526     0.03400
C469        C  0.01271528  0.34523674  0.74276387    -0.12600
C470        C  0.48838580  0.33217049  0.72257193     0.18300
C471        C  0.46702854  0.34130384  0.72349115    -0.09600
C472        C  0.46917923  0.36182094  0.74572555    -0.02600
H473        H  0.02930968  0.33831932  0.74204320     0.04800
C474        C  0.48408165  0.30699479  0.70291573     0.20300
H475        H  0.45223837  0.36822939  0.74633767     0.10000
C476        C  0.46305037  0.27800867  0.71180390    -0.15900
C477        C  0.45905707  0.25331037  0.69476903     0.03000
C478        C  0.47657551  0.25743827  0.66841789    -0.11300
C479        C  0.49694349  0.28660177  0.65898672    -0.01300
C480        C  0.50082641  0.31129553  0.67607728    -0.06500
H481        H  0.44971988  0.27461630  0.73216581     0.06000
H482        H  0.01033981  0.29019301  0.63864613     0.09400
Br483      Br  0.43455612  0.32623053  0.69483526    -0.06200
Br484      Br  0.04881726  0.38136328  0.79214307    -0.03100
Br485      Br  0.42813218  0.21475572  0.70763118    -0.00300
Br486      Br  0.02884826  0.35045866  0.66187749    -0.04600
C487        C  0.37705059  0.47468942  0.90009566    -0.12000
C488        C  0.34769661  0.45056466  0.90400156     0.03400
C489        C  0.32859205  0.45297796  0.92514311    -0.12600
C490        C  0.33785466  0.47914407  0.94226026     0.18300
C491        C  0.36702643  0.00296056  0.93879773    -0.09600
C492        C  0.38633585  0.00057554  0.91804003    -0.02600
H493        H  0.30601747  0.43468922  0.92753018     0.04800
C494        C  0.31624578  0.48173987  0.96237053     0.20300
H495        H  0.40863893  0.01934291  0.91562577     0.10000
C496        C  0.31158270  0.47050599  0.99232421    -0.15900
C497        C  0.29069893  0.47198093  0.51167389     0.03000
C498        C  0.27385081  0.48494588  0.00093452    -0.11300
C499        C  0.27886549  0.49623363  0.97075699    -0.01300
C500        C  0.29976037  0.49471397  0.95161525    -0.06500
H501        H  0.32408220  0.96025208  0.50058162     0.06000
H502        H  0.26646425  0.50634391  0.96186441     0.09400
Br503      Br  0.38116080  0.03951091  0.96131242    -0.06200
Br504      Br  0.33101421  0.41472154  0.87963818    -0.03100
Br505      Br  0.28553166  0.95413605  0.55151359    -0.00300
Br506      Br  0.30481079  0.51022056  0.91068090    -0.04600
C507        C  0.18059717  0.48875866  0.50620045    -0.12000
C508        C  0.15113810  0.47335746  0.51774010     0.03400
C509        C  0.12804690  0.47365426  0.00128393    -0.12600
C510        C  0.13369327  0.48920676  0.97356459     0.18300
C511        C  0.16316926  0.00581577  0.96292217    -0.09600
C512        C  0.18621226  0.00516179  0.97896300    -0.02600
H513        H  0.10539357  0.46076663  0.00955401     0.04800
C514        C  0.10848668  0.48554648  0.95442316     0.20300
H515        H  0.20868543  0.01765337  0.97012482     0.10000
C516        C  0.09162150  0.99874907  0.96328595    -0.15900
C517        C  0.06888646  0.99693313  0.94419708     0.03000
C518        C  0.06307823  0.48187617  0.91562401    -0.11300
C519        C  0.07945151  0.46792522  0.90753775    -0.01300
C520        C  0.10157353  0.46924676  0.92678085    -0.06500
H521        H  0.09667001  0.01111855  0.98469241     0.06000
H522        H  0.07508622  0.45591380  0.88596385     0.09400
Br523      Br  0.17288142  0.02955078  0.92639414    -0.06200
Br524      Br  0.14022073  0.44948846  0.55431881    -0.03100
Br525      Br  0.04821309  0.01718181  0.95738006    -0.00300
Br526      Br  0.12173993  0.44825061  0.91437379    -0.04600
C527        C  0.27484080  0.48433357  0.66659090    -0.12000
C528        C  0.28214979  0.49541694  0.69709280     0.03400
C529        C  0.30417078  0.49299339  0.71328774    -0.12600
C530        C  0.31966844  0.48020999  0.69968091     0.18300
C531        C  0.31341946  0.47022599  0.66906941    -0.09600
C532        C  0.29114808  0.47226042  0.65279734    -0.02600
H533        H  0.30935223  0.00124706  0.73671475     0.04800
C534        C  0.34183767  0.47714681  0.71832026     0.20300
H535        H  0.28632927  0.46396937  0.62938357     0.10000
C536        C  0.33326696  0.45026070  0.73349146    -0.15900
C537        C  0.35217911  0.44775307  0.75480532     0.03000
C538        C  0.38028224  0.47291903  0.76168963    -0.11300
C539        C  0.38929393  0.49923997  0.74481272    -0.01300
C540        C  0.37045006  0.50145828  0.72332015    -0.06500
H541        H  0.31127237  0.43134119  0.72942862     0.06000
H542        H  0.41094974  0.01858497  0.74877343     0.09400
Br543      Br  0.33513776  0.45411372  0.64869302    -0.06200
Br544      Br  0.26463966  0.01585590  0.71771379    -0.03100
Br545      Br  0.33700986  0.40971117  0.77440945    -0.00300
Br546      Br  0.38438363  0.03827085  0.70169806    -0.04600
C547        C  0.06433814  0.47967115  0.75711002    -0.12000
C548        C  0.05574904  0.46330443  0.72922957     0.03400
C549        C  0.07750269  0.46379368  0.70961380    -0.12600
C550        C  0.10781249  0.48088707  0.71702706     0.18300
C551        C  0.11638009  0.49828496  0.74399066    -0.09600
C552        C  0.09477325  0.49706082  0.76405518    -0.02600
H553        H  0.07075962  0.45041314  0.68883503     0.04800
C554        C  0.13043905  0.47945231  0.69750052     0.20300
H555        H  0.10185558  0.01017369  0.78500305     0.10000
C556        C  0.14070463  0.49694124  0.67097544    -0.15900
C557        C  0.16452050  0.49857643  0.65408737     0.03000
C558        C  0.17856422  0.48249695  0.66388218    -0.11300
C559        C  0.16762850  0.46446766  0.69010013    -0.01300
C560        C  0.14365015  0.46264945  0.70665409    -0.06500
H561        H  0.13075720  0.01008146  0.66394895     0.06000
H562        H  0.17769444  0.45160137  0.69772122     0.09400
Br563      Br  0.15747187  0.02440130  0.75404178    -0.06200
Br564      Br  0.01482741  0.43853816  0.71754445    -0.03100
Br565      Br  0.17806294  0.02503696  0.61948838    -0.00300
Br566      Br  0.12962893  0.43701818  0.74181022    -0.04600
C567        C  0.29775643  0.29186508  0.50827909    -0.12000
C568        C  0.32785405  0.30034569  0.51364287     0.03400
C569        C  0.35052198  0.32404730  0.99725323    -0.12600
C570        C  0.34381219  0.33954637  0.97525006     0.18300
C571        C  0.31385524  0.33145237  0.97019006    -0.09600
C572        C  0.29114251  0.30779190  0.98659347    -0.02600
H573        H  0.37340817  0.32955663  0.00069709     0.04800
C574        C  0.36773226  0.36109358  0.95484545     0.20300
H575        H  0.26820803  0.30165705  0.98221616     0.10000
C576        C  0.36940509  0.35185328  0.92502901    -0.15900
C577        C  0.39097421  0.37112551  0.90434718     0.03000
C578        C  0.41156534  0.40086940  0.91326801    -0.11300
C579        C  0.41041642  0.40975526  0.94366271    -0.01300
C580        C  0.38883293  0.39009729  0.96441443    -0.06500
H581        H  0.35368907  0.32930710  0.91778032     0.06000
H582        H  0.42596151  0.43223385  0.95118731     0.09400
Br583      Br  0.30302780  0.35184826  0.94064657    -0.06200
Br584      Br  0.33922669  0.27829873  0.54035281    -0.03100
Br585      Br  0.39098118  0.35428024  0.86483210    -0.00300
Br586      Br  0.38843954  0.40393597  0.00526038    -0.04600
C587        C  0.20239423  0.19679834  0.00339712    -0.12000
C588        C  0.17467559  0.17539945  0.51623516     0.03400
C589        C  0.15260980  0.15336413  0.99740903    -0.12600
C590        C  0.15733041  0.15200742  0.96589212     0.18300
C591        C  0.18460275  0.17314121  0.95301665    -0.09600
C592        C  0.20671499  0.19518543  0.97160309    -0.02600
H593        H  0.13148899  0.13729803  0.00736987     0.04800
C594        C  0.13341207  0.12901007  0.94636832     0.20300
H595        H  0.22758503  0.21095542  0.96100703     0.10000
C596        C  0.11451859  0.13628533  0.93026724    -0.15900
C597        C  0.09364454  0.11636135  0.90906736     0.03000
C598        C  0.09131218  0.08818730  0.90364048    -0.11300
C599        C  0.10986050  0.08078881  0.92071218    -0.01300
C600        C  0.13059562  0.10080365  0.94193504    -0.06500
H601        H  0.11670372  0.15806088  0.93352099     0.06000
H602        H  0.10862509  0.05946140  0.91726661     0.09400
Br603      Br  0.19265437  0.17247823  0.91004126    -0.06200
Br604      Br  0.16428307  0.17518005  0.55870506    -0.03100
Br605      Br  0.07113987  0.13064915  0.88696885    -0.00300
Br606      Br  0.15537178  0.08915331  0.96363961    -0.04600
C607        C  0.30172988  0.27929780  0.66856019    -0.12000
C608        C  0.33181539  0.29243920  0.65962106     0.03400
C609        C  0.35382949  0.31654282  0.67635855    -0.12600
C610        C  0.34647188  0.32735608  0.70254736     0.18300
C611        C  0.31658253  0.31366724  0.71208976    -0.09600
C612        C  0.29451109  0.28992341  0.69508167    -0.02600
H613        H  0.37685781  0.32636105  0.66942556     0.04800
C614        C  0.37042152  0.35161624  0.72079531     0.20300
H615        H  0.27156768  0.27994105  0.70242962     0.10000
C616        C  0.38307930  0.38131981  0.71104101    -0.15900
C617        C  0.40489022  0.40472200  0.72886735     0.03000
C618        C  0.41409928  0.39836654  0.75701037    -0.11300
C619        C  0.40149397  0.36852914  0.76633794    -0.01300
C620        C  0.38029154  0.34530644  0.74833671    -0.06500
H621        H  0.37550372  0.38633042  0.68984930     0.06000
H622        H  0.40825436  0.36314372  0.78783147     0.09400
Br623      Br  0.30491941  0.32659333  0.74826428    -0.06200
Br624      Br  0.34443021  0.27654566  0.62674170    -0.03100
Br625      Br  0.41939793  0.44475573  0.71494727    -0.00300
Br626      Br  0.36551209  0.30524053  0.76228183    -0.04600
C627        C  0.09181515  0.08492889  0.76527254    -0.12000
C628        C  0.10094013  0.11561876  0.76373118     0.03400
C629        C  0.12150426  0.13359352  0.74138856    -0.12600
C630        C  0.13359661  0.12172689  0.72060162     0.18300
C631        C  0.12417951  0.09114651  0.72167765    -0.09600
C632        C  0.10339022  0.07304146  0.74371958    -0.02600
H633        H  0.12909106  0.15724793  0.74106405     0.04800
C634        C  0.15825853  0.14217477  0.70030734     0.20300
H635        H  0.09655654  0.04959939  0.74426848     0.10000
C636        C  0.18748847  0.15051780  0.70876946    -0.15900
C637        C  0.21171264  0.17141737  0.69161297     0.03000
C638        C  0.20690742  0.18472975  0.66555980    -0.11300
C639        C  0.17750593  0.17523521  0.65628093    -0.01300
C640        C  0.15328293  0.15421365  0.67348815    -0.06500
H641        H  0.19146669  0.14089497  0.72904409     0.06000
H642        H  0.17333529  0.18492150  0.63619499     0.09400
Br643      Br  0.13969029  0.07339814  0.69386749    -0.06200
Br644      Br  0.08883979  0.13513637  0.79332653    -0.03100
Br645      Br  0.25064207  0.17971244  0.70417628    -0.00300
Br646      Br  0.11384314  0.14265840  0.65968982    -0.04600
C647        C  0.23189356  0.70961163  0.14902948     0.80200
N648        N  0.23098736  0.71201859  0.11793948    -0.78100
C649        C  0.25333959  0.73566382  0.10307056     0.82600
N650        N  0.27649478  0.75707026  0.11950050    -0.78100
C651        C  0.27750119  0.75501096  0.15055574     0.82700
N652        N  0.25497680  0.73143992  0.16517760    -0.79800
C653        C  0.22727819  0.72057941  0.02196693     0.80200
N654        N  0.22896348  0.71763209  0.05284669    -0.78100
C655        C  0.25212234  0.73873425  0.06950848     0.82600
N656        N  0.27415771  0.76284875  0.05503046    -0.78100
C657        C  0.27310414  0.76604479  0.02414612     0.82700
N658        N  0.24953535  0.74497977  0.00780144    -0.79800
C659        C  0.25054804  0.98488651  0.14883400     0.80200
N660        N  0.22666071  0.98338335  0.16356343    -0.78100
C661        C  0.20446605  0.98405841  0.14757274     0.82600
N662        N  0.20593847  0.98541326  0.11650489    -0.78100
C663        C  0.22932605  0.98646500  0.10135785     0.82700
N664        N  0.25161030  0.98614307  0.11753648    -0.79800
C665        C  0.25043705  0.98632397  0.01967819     0.80200
N666        N  0.25137311  0.98654044  0.05098966    -0.78100
C667        C  0.22962980  0.98744598  0.06762162     0.82600
N668        N  0.20704214  0.98831085  0.05289923    -0.78100
C669        C  0.20567834  0.98810660  0.02184603     0.82700
N670        N  0.22757236  0.98735455  0.00531558    -0.79800
C671        C  0.47466014  0.73193776  0.15098750     0.80200
N672        N  0.47592622  0.73266093  0.11976794    -0.78100
C673        C  0.47522983  0.70971817  0.10377483     0.82600
N674        N  0.47366629  0.68617878  0.11914268    -0.78100
C675        C  0.47258078  0.68528325  0.15031278     0.82700
N676        N  0.47339736  0.70839355  0.16611263    -0.79800
C677        C  0.48242549  0.73561575  0.02315673     0.80200
N678        N  0.48297826  0.71281371  0.00805060    -0.78100
C679        C  0.48035858  0.68893556  0.02361615     0.82600
N680        N  0.47764183  0.68801116  0.05463958    -0.78100
C681        C  0.47731915  0.71069055  0.07009042     0.82700
N682        N  0.47949256  0.73432542  0.05428045    -0.79800
O683        O  0.01485504  0.91469996  0.37192682    -0.88200
C684        C  0.07210766  0.56537925  0.29007337     1.11800
O685        O  0.48847213  0.94743595  0.33571093    -1.36000
O686        O  0.07709747  0.54713470  0.36960407    -0.89700
O687        O  0.46528195  0.88781113  0.37050547    -0.90400
O688        O  0.45559235  0.94682821  0.39964192    -0.79200
O689        O  0.04648328  0.98086313  0.36543474    -1.01300
C690        C  0.48400745  0.53159387  0.38966909     1.21800
O691        O  0.45526041  0.97631987  0.33404059    -1.36200
Mn692      Mn  0.48731507  0.97724690  0.30153610     1.82100
O693        O  0.48467310  0.50903644  0.39901233    -0.78300
O694        O  0.05022437  0.56992275  0.36875026    -0.87700
C695        C  0.48498936  0.52966774  0.27731619     1.12900
C696        C  0.07151517  0.56706449  0.37935872     1.07700
O697        O  0.45729813  0.94529518  0.26990184    -0.79200
O698        O  0.01741600  0.50935600  0.33490655    -1.32900
O699        O  0.43062656  0.91785023  0.30602480    -0.98400
C700        C  0.39775756  0.97459290  0.37646089     1.06400
Mn701      Mn  0.01812294  0.55064214  0.33390855     1.48600
O702        O  0.39453007  0.94989061  0.36694822    -0.87600
Mn703      Mn  0.44992488  0.90450625  0.33555437     1.49600
O704        O  0.01627780  0.91383944  0.30305203    -0.91500
C705        C  0.04151065  0.98120595  0.39283326     1.19600
C706        C  0.49194548  0.89311937  0.29218563     1.11600
Mn707      Mn  0.48648669  0.97820025  0.36828760     1.81000
O708        O  0.48486501  0.53413091  0.30476252    -0.96700
Mn709      Mn  0.02926332  0.94681720  0.33695876     1.49300
C710        C  0.49027281  0.89335166  0.38149022     1.08100
Mn711      Mn  0.45115740  0.51500176  0.33286054     1.49900
C712        C  0.39972771  0.97342578  0.28727067     1.11000
O713        O  0.42954377  0.91830534  0.36357979    -1.00800
O714        O  0.05111770  0.56921980  0.29986895    -0.92100
C715        C  0.43328754  0.92288863  0.39112848     1.22300
O716        O  0.48418201  0.53484655  0.36204014    -1.02900
O717        O  0.07732261  0.54558490  0.30079991    -0.90300
O718        O  0.41915369  0.49868732  0.29785117    -0.89900
O719        O  0.46663104  0.88787963  0.30182461    -0.89900
Mn720      Mn  0.06044161  0.51361192  0.33576142     1.47900
O721        O  0.48638751  0.50715816  0.26914721    -0.78400
C722        C  0.43491464  0.92171026  0.27850412     1.15400
O723        O  0.01774038  0.98024331  0.40046414    -0.77100
O724        O  0.01891166  0.97783774  0.27121680    -0.76700
Mn725      Mn  0.41408880  0.93569418  0.33372701     1.51100
O726        O  0.41790386  0.49961314  0.36633420    -0.89100
O727        O  0.04750087  0.97974226  0.30724089    -0.96600
O728        O  0.39605180  0.94904531  0.29810256    -0.91600
C729        C  0.04251499  0.97888845  0.27964117     1.13200
C730        C  0.48329951  0.55386488  0.41089323    -0.12000
C731        C  0.48182549  0.57893230  0.39989809     0.03400
C732        C  0.48149333  0.59937584  0.42064000    -0.12600
C733        C  0.48353559  0.59634741  0.45233854     0.18300
C734        C  0.48491180  0.57156088  0.46351931    -0.09600
C735        C  0.48461265  0.55051482  0.44287379    -0.02600
H736        H  0.48013658  0.61825205  0.41189747     0.04800
C737        C  0.48423859  0.61962107  0.47285337     0.20300
H738        H  0.48594374  0.53174336  0.45192044     0.10000
C739        C  0.46033497  0.61242096  0.49280122    -0.15900
C740        C  0.45880382  0.63464742  0.00984676     0.03000
C741        C  0.48138845  0.66464497  0.00690627    -0.11300
C742        C  0.50536518  0.67177553  0.48720546    -0.01300
C743        C  0.00703874  0.64959584  0.47040674    -0.06500
H744        H  0.44236671  0.58960211  0.49435593     0.06000
H745        H  0.02294056  0.69471823  0.48495362     0.09400
Br746      Br  0.48878105  0.56634512  0.00657145    -0.06200
Br747      Br  0.48101381  0.58805543  0.35713594    -0.03100
Br748      Br  0.42415315  0.62322981  0.03455653    -0.00300
Br749      Br  0.04113650  0.66147414  0.44468331    -0.04600
C750        C  0.49042425  0.87330100  0.40592332    -0.12000
C751        C  0.01440295  0.86775500  0.40972518     0.03400
C752        C  0.51233282  0.84666159  0.43111167    -0.12600
C753        C  0.48663776  0.83041025  0.44872427     0.18300
C754        C  0.46290729  0.83607112  0.44552097    -0.09600
C755        C  0.46494211  0.85739457  0.42438020    -0.02600
H756        H  0.03047983  0.84204010  0.43318298     0.04800
C757        C  0.48432637  0.80608012  0.46840210     0.20300
H758        H  0.44623261  0.86109074  0.42195886     0.10000
C759        C  0.49468039  0.81207008  0.49881608    -0.15900
C760        C  0.49430486  0.78971401  0.01733106     0.03000
C761        C  0.48341449  0.76059093  0.50523447    -0.11300
C762        C  0.47306610  0.75492946  0.47464840    -0.01300
C763        C  0.47342739  0.77724775  0.45637829    -0.06500
H764        H  0.50351492  0.83439365  0.00803216     0.06000
H765        H  0.46441529  0.73288385  0.46476811     0.09400
Br766      Br  0.42692276  0.81432356  0.46869843    -0.06200
Br767      Br  0.04940117  0.88548156  0.38452345    -0.03100
Br768      Br  0.01068861  0.80133835  0.05799858    -0.00300
Br769      Br  0.45903198  0.76740405  0.41490867    -0.04600
C770        C  0.47317847  0.66074137  0.16708338    -0.12000
C771        C  0.45659566  0.63065822  0.15744151     0.03400
C772        C  0.45846144  0.60846498  0.17401434    -0.12600
C773        C  0.47672626  0.61572528  0.20007451     0.18300
C774        C  0.99377891  0.64573947  0.20926997    -0.09600
C775        C  0.99160930  0.66784333  0.19307790    -0.02600
H776        H  0.44521572  0.58539622  0.16688428     0.04800
C777        C  0.47683802  0.59179368  0.21839769     0.20300
H778        H  0.00492154  0.69082558  0.20048827     0.10000
C779        C  0.99151155  0.57697367  0.20739265    -0.15900
C780        C  0.99402326  0.55601240  0.22569279     0.03000
C781        C  0.48173100  0.54980404  0.25553557    -0.11300
C782        C  0.46647191  0.56428498  0.26595221    -0.01300
C783        C  0.46358137  0.58468167  0.24759686    -0.06500
H784        H  0.00177830  0.58238682  0.18490665     0.06000
H785        H  0.45646235  0.55958798  0.28856161     0.09400
Br786      Br  0.02101378  0.65765345  0.24330426    -0.06200
Br787      Br  0.42966176  0.61816658  0.12315755    -0.03100
Br788      Br  0.01641427  0.53858575  0.20970223    -0.00300
Br789      Br  0.44111509  0.60212891  0.26344957    -0.04600
C790        C  0.49265921  0.87392000  0.26716507    -0.12000
C791        C  0.01522424  0.86617290  0.26482021     0.03400
C792        C  0.01271852  0.84523403  0.24277042    -0.12600
C793        C  0.48838836  0.83216669  0.22257769     0.18300
C794        C  0.46703131  0.84130044  0.22349552    -0.09600
C795        C  0.46918209  0.86181848  0.24572881    -0.02600
H796        H  0.02931305  0.83831673  0.24205060     0.04800
C797        C  0.48408551  0.80699182  0.20292076     0.20300
H798        H  0.45224133  0.86822730  0.24633989     0.10000
C799        C  0.46305174  0.77800532  0.21180539    -0.15900
C800        C  0.45905935  0.75330795  0.19476931     0.03000
C801        C  0.47658081  0.75743717  0.16842039    -0.11300
C802        C  0.49695170  0.78660102  0.15899294    -0.01300
C803        C  0.50083409  0.81129384  0.17608495    -0.06500
H804        H  0.44971869  0.77461193  0.23216535     0.06000
H805        H  0.01034915  0.79019328  0.13865348     0.09400
Br806      Br  0.43455978  0.82622740  0.19483846    -0.06200
Br807      Br  0.04882139  0.88136420  0.29214731    -0.03100
Br808      Br  0.42813173  0.71475269  0.20762647    -0.00300
Br809      Br  0.02885870  0.85045779  0.16188941    -0.04600
C810        C  0.37705045  0.97468569  0.40009673    -0.12000
C811        C  0.34769525  0.95056244  0.40399990     0.03400
C812        C  0.32859102  0.95297574  0.42514184    -0.12600
C813        C  0.33785525  0.97914039  0.44226206     0.18300
C814        C  0.36702631  0.50296036  0.43879707    -0.09600
C815        C  0.38633563  0.50057441  0.41804004    -0.02600
H816        H  0.30601533  0.93468830  0.42752665     0.04800
C817        C  0.31624663  0.98173722  0.46237166     0.20300
H818        H  0.40863904  0.51934118  0.41562619     0.10000
C819        C  0.31158365  0.97050478  0.49232592    -0.15900
C820        C  0.29069912  0.97197896  0.01167535     0.03000
C821        C  0.27385262  0.98494620  0.50093450    -0.11300
C822        C  0.27886736  0.99623264  0.47075641    -0.01300
C823        C  0.29976174  0.99471144  0.45161523    -0.06500
H824        H  0.32408156  0.46025327  0.00057904     0.06000
H825        H  0.26646656  0.00634301  0.46186294     0.09400
Br826      Br  0.38116128  0.53951128  0.46131086    -0.06200
Br827      Br  0.33101097  0.91472225  0.37963173    -0.03100
Br828      Br  0.28553031  0.45413434  0.05151159    -0.00300
Br829      Br  0.30481264  0.01021645  0.41068012    -0.04600
C830        C  0.18059645  0.98875590  0.00620118    -0.12000
C831        C  0.15113713  0.97335554  0.01774016     0.03400
C832        C  0.12804953  0.97365657  0.50128215    -0.12600
C833        C  0.13369590  0.98921028  0.47356363     0.18300
C834        C  0.16316778  0.50581619  0.46292135    -0.09600
C835        C  0.18621173  0.50516373  0.47896186    -0.02600
H836        H  0.10539612  0.96076819  0.50955187     0.04800
C837        C  0.10848915  0.98555003  0.45442242     0.20300
H838        H  0.20868464  0.51765565  0.47012296     0.10000
C839        C  0.09162090  0.49874968  0.46328593    -0.15900
C840        C  0.06888588  0.49693356  0.44419695     0.03000
C841        C  0.06307982  0.98187882  0.41562400    -0.11300
C842        C  0.07945345  0.96792833  0.40753739    -0.01300
C843        C  0.10157585  0.96925029  0.42678013    -0.06500
H844        H  0.09667039  0.51112055  0.48469156     0.06000
H845        H  0.07508804  0.95591678  0.38596355     0.09400
Br846      Br  0.17287786  0.52954898  0.42639187    -0.06200
Br847      Br  0.14021845  0.94948680  0.05431909    -0.03100
Br848      Br  0.04821335  0.51718345  0.45737880    -0.00300
Br849      Br  0.12174222  0.94825426  0.41437266    -0.04600
C850        C  0.27484106  0.98433353  0.16659223    -0.12000
C851        C  0.28215065  0.99541763  0.19709383     0.03400
C852        C  0.30417075  0.99299289  0.21328916    -0.12600
C853        C  0.31966712  0.98020784  0.19968287     0.18300
C854        C  0.31341781  0.97022348  0.16907151    -0.09600
C855        C  0.29114714  0.97225885  0.15279919    -0.02600
H856        H  0.30936055  0.50125659  0.23671168     0.04800
C857        C  0.34183617  0.97714437  0.21832219     0.20300
H858        H  0.28632793  0.96396734  0.12938555     0.10000
C859        C  0.33326565  0.95025795  0.23349274    -0.15900
C860        C  0.35217804  0.94775010  0.25480620     0.03000
C861        C  0.38028107  0.97291604  0.26169071    -0.11300
C862        C  0.38929250  0.99923731  0.24481445    -0.01300
C863        C  0.37044846  0.00145587  0.22332231    -0.06500
H864        H  0.31127123  0.93133846  0.22942967     0.06000
H865        H  0.41095421  0.51857826  0.24876581     0.09400
Br866      Br  0.33513502  0.95410985  0.14869542    -0.06200
Br867      Br  0.26465314  0.51587223  0.21770778    -0.03100
Br868      Br  0.33700940  0.90970789  0.27440944    -0.00300
Br869      Br  0.38439087  0.53826412  0.20168701    -0.04600
C870        C  0.06433908  0.97967197  0.25711092    -0.12000
C871        C  0.05575024  0.96330394  0.22923132     0.03400
C872        C  0.07750417  0.96379337  0.20961598    -0.12600
C873        C  0.10781389  0.98088768  0.21702913     0.18300
C874        C  0.11638118  0.99828593  0.24399246    -0.09600
C875        C  0.09477409  0.99706216  0.26405627    -0.02600
H876        H  0.07076139  0.95041210  0.18883762     0.04800
C877        C  0.13044068  0.97945341  0.19750276     0.20300
H878        H  0.10185515  0.51017763  0.28500354     0.10000
C879        C  0.14070661  0.99694303  0.17097817    -0.15900
C880        C  0.16452246  0.99857834  0.15409003     0.03000
C881        C  0.17856548  0.98249805  0.16388411    -0.11300
C882        C  0.16762964  0.96446834  0.19010176    -0.01300
C883        C  0.14365155  0.96265027  0.20665601    -0.06500
H884        H  0.13075765  0.51008277  0.16394903     0.06000
H885        H  0.17769534  0.95160172  0.19772240     0.09400
Br886      Br  0.15747269  0.52440835  0.25404345    -0.06200
Br887      Br  0.01482866  0.93853521  0.21754732    -0.03100
Br888      Br  0.17806412  0.52503941  0.11948900    -0.00300
Br889      Br  0.12963069  0.93701917  0.24181230    -0.04600
C890        C  0.29775611  0.79186591  0.00828068    -0.12000
C891        C  0.32785330  0.80034263  0.01364027     0.03400
C892        C  0.35052233  0.82405092  0.49725987    -0.12600
C893        C  0.34381042  0.83953805  0.47524422     0.18300
C894        C  0.31385202  0.83143167  0.47017174    -0.09600
C895        C  0.29114029  0.80777217  0.48657697    -0.02600
H896        H  0.37341005  0.82956951  0.50071320     0.04800
C897        C  0.36773209  0.86108705  0.45484231     0.20300
H898        H  0.26820482  0.80162842  0.48219033     0.10000
C899        C  0.36942236  0.85184172  0.42503352    -0.15900
C900        C  0.39099199  0.87111636  0.40435345     0.03000
C901        C  0.41156712  0.90086668  0.41326890    -0.11300
C902        C  0.41040116  0.90975821  0.44365658    -0.01300
C903        C  0.38881587  0.89009878  0.46440604    -0.06500
H904        H  0.35371886  0.82929027  0.41778899     0.06000
H905        H  0.42593298  0.93224244  0.45117635     0.09400
Br906      Br  0.30302132  0.85180860  0.44060810    -0.06200
Br907      Br  0.33922432  0.77829090  0.04034516    -0.03100
Br908      Br  0.39102199  0.85426662  0.36484820    -0.00300
Br909      Br  0.38839523  0.90394632  0.50524075    -0.04600
C910        C  0.20239014  0.69679491  0.50339900    -0.12000
C911        C  0.17467849  0.67539524  0.01623606     0.03400
C912        C  0.15260295  0.65336501  0.49741144    -0.12600
C913        C  0.15732415  0.65200549  0.46589512     0.18300
C914        C  0.18459780  0.67313607  0.45301956    -0.09600
C915        C  0.20671113  0.69517956  0.47160545    -0.02600
H916        H  0.13148103  0.63730140  0.50737222     0.04800
C917        C  0.13340583  0.62900791  0.44637185     0.20300
H918        H  0.22758221  0.71094693  0.46100939     0.10000
C919        C  0.11451186  0.63628263  0.43027104    -0.15900
C920        C  0.09363951  0.61635929  0.40906960     0.03000
C921        C  0.09130911  0.58818627  0.40364138    -0.11300
C922        C  0.10985783  0.58078825  0.42071291    -0.01300
C923        C  0.13059160  0.60080265  0.44193687    -0.06500
H924        H  0.11669581  0.65805764  0.43352569     0.06000
H925        H  0.10862401  0.55946165  0.41726617     0.09400
Br926      Br  0.19264969  0.67246976  0.41004472    -0.06200
Br927      Br  0.16428681  0.67517164  0.05870693    -0.03100
Br928      Br  0.07113511  0.63064701  0.38697038    -0.00300
Br929      Br  0.15536942  0.58915371  0.46364036    -0.04600
C930        C  0.30172910  0.77929546  0.16856212    -0.12000
C931        C  0.33181456  0.79243908  0.15962214     0.03400
C932        C  0.35382804  0.81654262  0.17636023    -0.12600
C933        C  0.34646992  0.82735373  0.20255036     0.18300
C934        C  0.31658071  0.81366256  0.21209375    -0.09600
C935        C  0.29450983  0.78991872  0.19508510    -0.02600
H936        H  0.37685632  0.82636243  0.16942669     0.04800
C937        C  0.37041928  0.85161407  0.22079839     0.20300
H938        H  0.27156653  0.77993459  0.20243377     0.10000
C939        C  0.38307605  0.88131772  0.21104459    -0.15900
C940        C  0.40488817  0.90471987  0.22887001     0.03000
C941        C  0.41409935  0.89836432  0.25701167    -0.11300
C942        C  0.40149498  0.86852686  0.26633870    -0.01300
C943        C  0.38029138  0.84530419  0.24833834    -0.06500
H944        H  0.37549910  0.88632835  0.18985389     0.06000
H945        H  0.40825700  0.86314139  0.28783128     0.09400
Br946      Br  0.30491702  0.82658522  0.24827040    -0.06200
Br947      Br  0.34443045  0.77654890  0.12674049    -0.03100
Br948      Br  0.41939505  0.94475359  0.21495039    -0.00300
Br949      Br  0.36551358  0.80523818  0.26228231    -0.04600
C950        C  0.09181399  0.58492834  0.26527200    -0.12000
C951        C  0.10093979  0.61561840  0.26373055     0.03400
C952        C  0.12150432  0.63359273  0.24138799    -0.12600
C953        C  0.13359602  0.62172540  0.22060111     0.18300
C954        C  0.12417780  0.59114481  0.22167699    -0.09600
C955        C  0.10338826  0.57304028  0.24371890    -0.02600
H956        H  0.12909191  0.65724738  0.24106345     0.04800
C957        C  0.15825839  0.64217254  0.20030695     0.20300
H958        H  0.09655365  0.54959789  0.24426767     0.10000
C959        C  0.18748815  0.65051630  0.20877053    -0.15900
C960        C  0.21171270  0.67141504  0.19161388     0.03000
C961        C  0.20690800  0.68472618  0.16555928    -0.11300
C962        C  0.17750668  0.67523049  0.15627878    -0.01300
C963        C  0.15328332  0.65420941  0.17348595    -0.06500
H964        H  0.19146593  0.64089454  0.22904639     0.06000
H965        H  0.17333639  0.68491555  0.13619171     0.09400
Br966      Br  0.13968765  0.57339565  0.19386671    -0.06200
Br967      Br  0.08883975  0.63513655  0.29332555    -0.03100
Br968      Br  0.25064181  0.67971042  0.20417885    -0.00300
Br969      Br  0.11384377  0.64265198  0.15968499    -0.04600
C970        C  0.23189131  0.70961304  0.64902912     0.80200
N971        N  0.23098593  0.71201933  0.61793903    -0.78100
C972        C  0.25333912  0.73566357  0.60306997     0.82600
N973        N  0.27649466  0.75706974  0.61949987    -0.78100
C974        C  0.27750003  0.75501116  0.65055537     0.82700
N975        N  0.25497464  0.73144110  0.66517732    -0.79800
C976        C  0.22727698  0.72057740  0.52196687     0.80200
N977        N  0.22896237  0.71763107  0.55284673    -0.78100
C978        C  0.25212226  0.73873287  0.56950769     0.82600
N979        N  0.27415843  0.76284603  0.55502872    -0.78100
C980        C  0.27310508  0.76604084  0.52414408     0.82700
N981        N  0.24953514  0.74497617  0.50780039    -0.79800
C982        C  0.25054461  0.98488153  0.64883249     0.80200
N983        N  0.22665650  0.98337716  0.66356142    -0.78100
C984        C  0.20446211  0.98405248  0.64757041     0.82600
N985        N  0.20593569  0.98540887  0.61650264    -0.78100
C986        C  0.22932407  0.98646184  0.60135604     0.82700
N987        N  0.25160800  0.98613965  0.61753504    -0.79800
C988        C  0.25043785  0.98632479  0.51967662     0.80200
N989        N  0.25137274  0.98653954  0.55098813    -0.78100
C990        C  0.22962937  0.98744517  0.56761986     0.82600
N991        N  0.20704286  0.98831193  0.55289721    -0.78100
C992        C  0.20568023  0.98810950  0.52184399     0.82700
N993        N  0.22757428  0.98735729  0.50531373    -0.79800
C994        C  0.47465703  0.73193972  0.65098694     0.80200
N995        N  0.47592272  0.73266149  0.61976739    -0.78100
C996        C  0.47522807  0.70971897  0.60377553     0.82600
N997        N  0.47366664  0.68618114  0.61914464    -0.78100
C998        C  0.47258139  0.68528687  0.65031483     0.82700
N999        N  0.47339629  0.70839704  0.66611334    -0.79800
C1000       C  0.48242486  0.73561579  0.52315722     0.80200
N1001       N  0.48297723  0.71281335  0.50805140    -0.78100
C1002       C  0.48035653  0.68893484  0.52361721     0.82600
N1003       N  0.47763936  0.68801055  0.55464065    -0.78100
C1004       C  0.47731708  0.71069035  0.57009111     0.82700
N1005       N  0.47949133  0.73432537  0.55428081    -0.79800
O1006       O  0.01484812  0.91469578  0.87192632    -0.88200
C1007       C  0.07210769  0.56537857  0.79007191     1.11800
O1008       O  0.48847043  0.94743582  0.83571079    -1.36000
O1009       O  0.07709889  0.54713529  0.86960217    -0.89700
O1010       O  0.46527618  0.88780903  0.87050417    -0.90400
O1011       O  0.45559143  0.94682842  0.89964202    -0.79200
O1012       O  0.04648123  0.98086005  0.86543555    -1.01300
C1013       C  0.48400842  0.53159426  0.88966847     1.21800
O1014       O  0.45526054  0.97632159  0.83404053    -1.36200
Mn1015     Mn  0.48731487  0.97724768  0.80153605     1.82100
O1016       O  0.48467399  0.50903679  0.89901164    -0.78300
O1017       O  0.05022615  0.56992377  0.86874926    -0.87700
C1018       C  0.48499071  0.52966930  0.77731606     1.12900
C1019       C  0.07151724  0.56706549  0.87935696     1.07700
O1020       O  0.45729747  0.94529638  0.76990121    -0.79200
O1021       O  0.01741679  0.50935642  0.83490590    -1.32900
O1022       O  0.43062522  0.91785248  0.80602422    -0.98400
C1023       C  0.39775831  0.97459661  0.87646060     1.06400
Mn1024     Mn  0.01812390  0.55064253  0.83390807     1.48600
O1025       O  0.39453062  0.94989424  0.86694804    -0.87600
Mn1026     Mn  0.44992189  0.90450686  0.83555359     1.49600
O1027       O  0.01627350  0.91383789  0.80305157    -0.91500
C1028       C  0.04150864  0.98120276  0.89283406     1.19600
C1029       C  0.49194162  0.89311902  0.79218493     1.11600
Mn1030     Mn  0.48648614  0.97820039  0.86828785     1.81000
O1031       O  0.48486631  0.53413150  0.80476252    -0.96700
Mn1032     Mn  0.02925995  0.94681457  0.83695899     1.49300
C1033       C  0.49026660  0.89334862  0.88148943     1.08100
Mn1034     Mn  0.45115844  0.51500284  0.83286004     1.49900
C1035       C  0.39972921  0.97342974  0.78726987     1.11000
O1036       O  0.42954267  0.91830778  0.86357914    -1.00800
O1037       O  0.05111813  0.56921953  0.79986798    -0.92100
C1038       C  0.43328574  0.92288987  0.89112797     1.22300
O1039       O  0.48418320  0.53484712  0.86203961    -1.02900
O1040       O  0.07732276  0.54558428  0.80079821    -0.90300
O1041       O  0.41915484  0.49868884  0.79785029    -0.89900
O1042       O  0.46662722  0.88787961  0.80182371    -0.89900
Mn1043     Mn  0.06044227  0.51361199  0.83576004     1.47900
O1044       O  0.48638867  0.50715982  0.76914618    -0.78400
C1045       C  0.43491342  0.92171187  0.77850353     1.15400
O1046       O  0.01773887  0.98024126  0.90046479    -0.77100
O1047       O  0.01891152  0.97783782  0.77121733    -0.76700
Mn1048     Mn  0.41408837  0.93569710  0.83372660     1.51100
O1049       O  0.41790455  0.49961448  0.86633368    -0.89100
O1050       O  0.04749988  0.97974028  0.80724156    -0.96600
O1051       O  0.39605238  0.94904917  0.79810229    -0.91600
C1052       C  0.04251429  0.97888730  0.77964172     1.13200
C1053       C  0.48330026  0.55386515  0.91089242    -0.12000
C1054       C  0.48182432  0.57893147  0.89989707     0.03400
C1055       C  0.48149224  0.59937512  0.92063878    -0.12600
C1056       C  0.48353676  0.59634807  0.95233718     0.18300
C1057       C  0.48491466  0.57156251  0.96351818    -0.09600
C1058       C  0.48461524  0.55051621  0.94287289    -0.02600
H1059       H  0.48013391  0.61825045  0.91189614     0.04800
C1060       C  0.48424018  0.61962207  0.97285163     0.20300
H1061       H  0.48594773  0.53174552  0.95191962     0.10000
C1062       C  0.46033816  0.61242157  0.99280184    -0.15900
C1063       C  0.45880045  0.63464685  0.50984596     0.03000
C1064       C  0.48138651  0.66464407  0.50690769    -0.11300
C1065       C  0.50536542  0.67177688  0.98720138    -0.01300
C1066       C  0.00704005  0.64959683  0.97040513    -0.06500
H1067       H  0.44237091  0.58960241  0.99435832     0.06000
H1068       H  0.02294106  0.69471918  0.98495142     0.09400
Br1069     Br  0.48877550  0.56634181  0.50657275    -0.06200
Br1070     Br  0.48100973  0.58805301  0.85713492    -0.03100
Br1071     Br  0.42414791  0.62323010  0.53455241    -0.00300
Br1072     Br  0.04113735  0.66147557  0.94468077    -0.04600
C1073       C  0.49041679  0.87329662  0.90592202    -0.12000
C1074       C  0.01439704  0.86775449  0.90972869     0.03400
C1075       C  0.51232883  0.84666357  0.93111719    -0.12600
C1076       C  0.48663035  0.83040569  0.94872299     0.18300
C1077       C  0.46289558  0.83605900  0.94551199    -0.09600
C1078       C  0.46493071  0.85738312  0.92437198    -0.02600
H1079       H  0.03047720  0.84204524  0.93319224     0.04800
C1080       C  0.48432066  0.80607662  0.96840137     0.20300
H1081       H  0.44621820  0.86107399  0.92194551     0.10000
C1082       C  0.49468018  0.81206893  0.99881344    -0.15900
C1083       C  0.49430320  0.78971415  0.51733352     0.03000
C1084       C  0.48341295  0.76058972  0.00523396    -0.11300
C1085       C  0.47305943  0.75492593  0.97464976    -0.01300
C1086       C  0.47341862  0.77724309  0.95637953    -0.06500
H1087       H  0.50351250  0.83439387  0.50803647     0.06000
H1088       H  0.46440638  0.73287940  0.96477108     0.09400
Br1089     Br  0.42690518  0.81430018  0.96867785    -0.06200
Br1090     Br  0.04939968  0.88548694  0.88453368    -0.03100
Br1091     Br  0.01068231  0.80133696  0.55800448    -0.00300
Br1092     Br  0.45901765  0.76739660  0.91491196    -0.04600
C1093       C  0.47318000  0.66074607  0.66708696    -0.12000
C1094       C  0.45660217  0.63066313  0.65744310     0.03400
C1095       C  0.45846894  0.60847107  0.67401705    -0.12600
C1096       C  0.47672956  0.61573205  0.70008061     0.18300
C1097       C  0.99377599  0.64574422  0.70927817    -0.09600
C1098       C  0.99160656  0.66784746  0.69308454    -0.02600
H1099       H  0.44522711  0.58540246  0.66688509     0.04800
C1100       C  0.47684274  0.59180072  0.71840315     0.20300
H1101       H  0.00491576  0.69082950  0.70049660     0.10000
C1102       C  0.99151147  0.57697725  0.70739544    -0.15900
C1103       C  0.99402194  0.55601401  0.72569349     0.03000
C1104       C  0.48173292  0.54980689  0.75553677    -0.11300
C1105       C  0.46647353  0.56428711  0.76595467    -0.01300
C1106       C  0.46358420  0.58468572  0.74760136    -0.06500
H1107       H  0.00177707  0.58239040  0.68490896     0.06000
H1108       H  0.45646261  0.55958790  0.78856339     0.09400
Br1109     Br  0.02100543  0.65765929  0.74331744    -0.06200
Br1110     Br  0.42967338  0.61816942  0.62315462    -0.03100
Br1111     Br  0.01640825  0.53858393  0.70969866    -0.00300
Br1112     Br  0.44111544  0.60212992  0.76345496    -0.04600
C1113       C  0.49265537  0.87392081  0.76716327    -0.12000
C1114       C  0.01522169  0.86617527  0.76481652     0.03400
C1115       C  0.01271712  0.84523816  0.74276522    -0.12600
C1116       C  0.48838527  0.83217057  0.72257276     0.18300
C1117       C  0.46702723  0.84130285  0.72349294    -0.09600
C1118       C  0.46917786  0.86181970  0.74572749    -0.02600
H1119       H  0.02931239  0.83832181  0.74204435     0.04800
C1120       C  0.48408145  0.80699525  0.70291634     0.20300
H1121       H  0.45223637  0.86822748  0.74634025     0.10000
C1122       C  0.46305213  0.77800888  0.71180571    -0.15900
C1123       C  0.45905943  0.75331089  0.69477074     0.03000
C1124       C  0.47657655  0.75743942  0.66841833    -0.11300
C1125       C  0.49694240  0.78660316  0.65898593    -0.01300
C1126       C  0.50082468  0.81129662  0.67607660    -0.06500
H1127       H  0.44972281  0.77461609  0.73216854     0.06000
H1128       H  0.01033849  0.79019540  0.63864410     0.09400
Br1129     Br  0.43455358  0.82622796  0.69483854    -0.06200
Br1130     Br  0.04881835  0.88136542  0.79214434    -0.03100
Br1131     Br  0.42813702  0.71475571  0.70763478    -0.00300
Br1132     Br  0.02884389  0.85046059  0.66187506    -0.04600
C1133       C  0.37705131  0.97468971  0.90009657    -0.12000
C1134       C  0.34769790  0.95056430  0.90400391     0.03400
C1135       C  0.32859362  0.95297753  0.92514585    -0.12600
C1136       C  0.33785597  0.97914406  0.94226211     0.18300
C1137       C  0.36702559  0.50296005  0.93879702    -0.09600
C1138       C  0.38633530  0.50057487  0.91803980    -0.02600
H1139       H  0.30601937  0.93468834  0.92753389     0.04800
C1140       C  0.31624707  0.98173996  0.96237215     0.20300
H1141       H  0.40863873  0.51934179  0.91562647     0.10000
C1142       C  0.31158520  0.97050794  0.99232655    -0.15900
C1143       C  0.29069787  0.97197685  0.51167430     0.03000
C1144       C  0.27385218  0.98494650  0.00093570    -0.11300
C1145       C  0.27886572  0.99623240  0.97075746    -0.01300
C1146       C  0.29976056  0.99471251  0.95161594    -0.06500
H1147       H  0.32408356  0.46025674  0.50058071     0.06000
H1148       H  0.26646358  0.00634151  0.96186410     0.09400
Br1149     Br  0.38116037  0.53950993  0.96131273    -0.06200
Br1150     Br  0.33101578  0.91472010  0.87964226    -0.03100
Br1151     Br  0.28553329  0.45414025  0.55151316    -0.00300
Br1152     Br  0.30480964  0.01021687  0.91068069    -0.04600
C1153       C  0.18059897  0.98875997  0.50619913    -0.12000
C1154       C  0.15113937  0.97335890  0.51773727     0.03400
C1155       C  0.12804674  0.97365158  0.00128435    -0.12600
C1156       C  0.13369251  0.98920370  0.97356480     0.18300
C1157       C  0.16317010  0.50581831  0.96292213    -0.09600
C1158       C  0.18621264  0.50516361  0.97896309    -0.02600
H1159       H  0.10539357  0.96076375  0.00955474     0.04800
C1160       C  0.10848556  0.98554336  0.95442375     0.20300
H1161       H  0.20868591  0.51765478  0.97012504     0.10000
C1162       C  0.09162324  0.49875314  0.96328427    -0.15900
C1163       C  0.06888801  0.49693648  0.94419530     0.03000
C1164       C  0.06307736  0.98187446  0.91562486    -0.11300
C1165       C  0.07945118  0.96792430  0.90753756    -0.01300
C1166       C  0.10157305  0.96924514  0.92678049    -0.06500
H1167       H  0.09667227  0.51112378  0.98469013     0.06000
H1168       H  0.07508650  0.95591412  0.88596298     0.09400
Br1169     Br  0.17288284  0.52955285  0.92639372    -0.06200
Br1170     Br  0.14021934  0.94948597  0.55431324    -0.03100
Br1171     Br  0.04821506  0.51718606  0.95737679    -0.00300
Br1172     Br  0.12174032  0.94825030  0.91437172    -0.04600
C1173       C  0.27483800  0.98432962  0.66659118    -0.12000
C1174       C  0.28214600  0.99541252  0.69709335     0.03400
C1175       C  0.30416747  0.99299001  0.71328851    -0.12600
C1176       C  0.31966669  0.98020831  0.69968164     0.18300
C1177       C  0.31341862  0.97022478  0.66906995    -0.09600
C1178       C  0.29114669  0.97225801  0.65279768    -0.02600
H1179       H  0.30935624  0.50125074  0.73671380     0.04800
C1180       C  0.34183704  0.97714692  0.71832089     0.20300
H1181       H  0.28632875  0.96396748  0.62938370     0.10000
C1182       C  0.33326980  0.95025912  0.73348700    -0.15900
C1183       C  0.35218263  0.94775208  0.75480047     0.03000
C1184       C  0.38028285  0.97292018  0.76168956    -0.11300
C1185       C  0.38929130  0.99924330  0.74481758    -0.01300
C1186       C  0.37044678  0.00146110  0.72332546    -0.06500
H1187       H  0.31127742  0.93133764  0.72942046     0.06000
H1188       H  0.41095483  0.51857971  0.74876495     0.09400
Br1189     Br  0.33513949  0.95411553  0.64869324    -0.06200
Br1190     Br  0.26464524  0.51586206  0.71771311    -0.03100
Br1191     Br  0.33701809  0.90970720  0.77439677    -0.00300
Br1192     Br  0.38439130  0.53826521  0.70168610    -0.04600
C1193       C  0.06433799  0.97967029  0.75711107    -0.12000
C1194       C  0.05574855  0.96330364  0.72923056     0.03400
C1195       C  0.07750189  0.96379244  0.70961469    -0.12600
C1196       C  0.10781173  0.98088498  0.71702806     0.18300
C1197       C  0.11637973  0.99828239  0.74399200    -0.09600
C1198       C  0.09477315  0.99705904  0.76405642    -0.02600
H1199       H  0.07075853  0.95041209  0.68883581     0.04800
C1200       C  0.13043778  0.97944966  0.69750118     0.20300
H1201       H  0.10185542  0.51017569  0.78500165     0.10000
C1202       C  0.14070352  0.99693865  0.67097614    -0.15900
C1203       C  0.16451859  0.99857278  0.65408741     0.03000
C1204       C  0.17856132  0.98249218  0.66388152    -0.11300
C1205       C  0.16762547  0.96446289  0.69009947    -0.01300
C1206       C  0.14364793  0.96264575  0.70665410    -0.06500
H1207       H  0.13075756  0.51008318  0.66394772     0.06000
H1208       H  0.17769079  0.95159590  0.69772013     0.09400
Br1209     Br  0.15747205  0.52440589  0.75403958    -0.06200
Br1210     Br  0.01482680  0.93853781  0.71754558    -0.03100
Br1211     Br  0.17806430  0.52504041  0.61948817    -0.00300
Br1212     Br  0.12962665  0.93701464  0.74181035    -0.04600
C1213       C  0.29775671  0.79186179  0.50827737    -0.12000
C1214       C  0.32785530  0.80034961  0.51364791     0.03400
C1215       C  0.35052106  0.82404363  0.99725266    -0.12600
C1216       C  0.34381102  0.83954197  0.97524877     0.18300
C1217       C  0.31385394  0.83144754  0.97018876    -0.09600
C1218       C  0.29114145  0.80778759  0.98659294    -0.02600
H1219       H  0.37340730  0.82955330  0.00069670     0.04800
C1220       C  0.36773116  0.86108990  0.95484449     0.20300
H1221       H  0.26820688  0.80165250  0.98221561     0.10000
C1222       C  0.36940391  0.85185092  0.92502740    -0.15900
C1223       C  0.39097295  0.87112409  0.90434596     0.03000
C1224       C  0.41156415  0.90086771  0.91326784    -0.11300
C1225       C  0.41041529  0.90975223  0.94366314    -0.01300
C1226       C  0.38883189  0.89009327  0.96441443    -0.06500
H1227       H  0.35368786  0.82930500  0.91777785     0.06000
H1228       H  0.42596036  0.93223044  0.95118858     0.09400
Br1229     Br  0.30302586  0.85184239  0.94064466    -0.06200
Br1230     Br  0.33923157  0.77831290  0.54036858    -0.03100
Br1231     Br  0.39097969  0.85428033  0.86482988    -0.00300
Br1232     Br  0.38843866  0.90393019  0.00526127    -0.04600
C1233       C  0.20239286  0.69679617  0.00339806    -0.12000
C1234       C  0.17467509  0.67539641  0.51623774     0.03400
C1235       C  0.15260753  0.65336372  0.99740886    -0.12600
C1236       C  0.15732913  0.65200633  0.96589229     0.18300
C1237       C  0.18460237  0.67313890  0.95301754    -0.09600
C1238       C  0.20671457  0.69518257  0.97160437    -0.02600
H1239       H  0.13148598  0.63729851  0.00736911     0.04800
C1240       C  0.13341113  0.62900940  0.94636801     0.20300
H1241       H  0.22758532  0.71095163  0.96100887     0.10000
C1242       C  0.11451787  0.63628492  0.93026691    -0.15900
C1243       C  0.09364440  0.61636145  0.90906630     0.03000
C1244       C  0.09131241  0.58818765  0.90363882    -0.11300
C1245       C  0.10986076  0.58078904  0.92071028    -0.01300
C1246       C  0.13059528  0.60080337  0.94193381    -0.06500
H1247       H  0.11670278  0.65806035  0.93352117     0.06000
H1248       H  0.10862576  0.55946188  0.91726411     0.09400
Br1249     Br  0.19265520  0.67247515  0.91004258    -0.06200
Br1250     Br  0.16428427  0.67517603  0.55870840    -0.03100
Br1251     Br  0.07114010  0.63064963  0.88696772    -0.00300
Br1252     Br  0.15537138  0.58915286  0.96363825    -0.04600
C1253       C  0.30172821  0.77929519  0.66856184    -0.12000
C1254       C  0.33181425  0.79243333  0.65962589     0.03400
C1255       C  0.35382842  0.81653686  0.67636353    -0.12600
C1256       C  0.34647019  0.82735281  0.70254990     0.18300
C1257       C  0.31658018  0.81366645  0.71208976    -0.09600
C1258       C  0.29450875  0.78992310  0.69508109    -0.02600
H1259       H  0.37685695  0.82635286  0.66943265     0.04800
C1260       C  0.37041967  0.85161345  0.72079776     0.20300
H1261       H  0.27156488  0.77994283  0.70242688     0.10000
C1262       C  0.38307900  0.88131660  0.71104151    -0.15900
C1263       C  0.40489015  0.90471938  0.72886718     0.03000
C1264       C  0.41409834  0.89836503  0.75701137    -0.11300
C1265       C  0.40149145  0.86852796  0.76634089    -0.01300
C1266       C  0.38028831  0.84530467  0.74834070    -0.06500
H1267       H  0.37550436  0.88632650  0.68984872     0.06000
H1268       H  0.40825101  0.86314325  0.78783543     0.09400
Br1269     Br  0.30491605  0.82659496  0.74826169    -0.06200
Br1270     Br  0.34442910  0.77653480  0.62675138    -0.03100
Br1271     Br  0.41939905  0.94475254  0.71494469    -0.00300
Br1272     Br  0.36550566  0.80523938  0.76228951    -0.04600
C1273       C  0.09181358  0.58492733  0.76527039    -0.12000
C1274       C  0.10094109  0.61561779  0.76373054     0.03400
C1275       C  0.12150520  0.63359196  0.74138776    -0.12600
C1276       C  0.13359493  0.62172409  0.72059918     0.18300
C1277       C  0.12417522  0.59114309  0.72167363    -0.09600
C1278       C  0.10338591  0.57303864  0.74371578    -0.02600
H1279       H  0.12909409  0.65724692  0.74106435     0.04800
C1280       C  0.15825679  0.64217121  0.70030467     0.20300
H1281       H  0.09655005  0.54959594  0.74426361     0.10000
C1282       C  0.18748661  0.65051390  0.70876681    -0.15900
C1283       C  0.21171088  0.67141421  0.69161105     0.03000
C1284       C  0.20690578  0.68472747  0.66555858    -0.11300
C1285       C  0.17750438  0.67523302  0.65627942    -0.01300
C1286       C  0.15328129  0.65421080  0.67348602    -0.06500
H1287       H  0.19146467  0.64089053  0.72904112     0.06000
H1288       H  0.17333390  0.68491995  0.63619398     0.09400
Br1289     Br  0.13968258  0.57339323  0.69386117    -0.06200
Br1290     Br  0.08884428  0.63513650  0.79332822    -0.03100
Br1291     Br  0.25064034  0.67970949  0.70417450    -0.00300
Br1292     Br  0.11384146  0.64265594  0.65968808    -0.04600
C1293       C  0.73189313  0.20961331  0.14902828     0.80200
N1294       N  0.73098726  0.21202049  0.11793832    -0.78100
C1295       C  0.75333993  0.23566549  0.10306959     0.82600
N1296       N  0.77649537  0.25707149  0.11949966    -0.78100
C1297       C  0.77750138  0.25501198  0.15055492     0.82700
N1298       N  0.75497650  0.23144121  0.16517659    -0.79800
C1299       C  0.72727824  0.22058134  0.02196618     0.80200
N1300       N  0.72896371  0.21763407  0.05284588    -0.78100
C1301       C  0.75212274  0.23873604  0.06950756     0.82600
N1302       N  0.77415818  0.26285037  0.05502948    -0.78100
C1303       C  0.77310459  0.26604638  0.02414514     0.82700
N1304       N  0.74953556  0.24498151  0.00780052    -0.79800
C1305       C  0.75054817  0.48488711  0.14883330     0.80200
N1306       N  0.72666116  0.48338423  0.16356319    -0.78100
C1307       C  0.70446598  0.48405865  0.14757283     0.82600
N1308       N  0.70593764  0.48541260  0.11650488    -0.78100
C1309       C  0.72932496  0.48646407  0.10135745     0.82700
N1310       N  0.75160966  0.48614277  0.11753577    -0.79800
C1311       C  0.75043588  0.48632378  0.01967756     0.80200
N1312       N  0.75137180  0.48653963  0.05098904    -0.78100
C1313       C  0.72962847  0.48744498  0.06762121     0.82600
N1314       N  0.70704102  0.48831038  0.05289903    -0.78100
C1315       C  0.70567739  0.48810681  0.02184584     0.82700
N1316       N  0.72757138  0.48735488  0.00531518    -0.79800
C1317       C  0.97466265  0.23193887  0.15098708     0.80200
N1318       N  0.97592828  0.23266189  0.11976748    -0.78100
C1319       C  0.97523154  0.20971895  0.10377432     0.82600
N1320       N  0.97366800  0.18617954  0.11914214    -0.78100
C1321       C  0.97258289  0.18528415  0.15031225     0.82700
N1322       N  0.97339989  0.20839463  0.16611212    -0.79800
C1323       C  0.98242556  0.23561548  0.02315590     0.80200
N1324       N  0.98297751  0.21281296  0.00804986    -0.78100
C1325       C  0.98035776  0.18893487  0.02361559     0.82600
N1326       N  0.97764183  0.18801101  0.05463908    -0.78100
C1327       C  0.97732002  0.21069087  0.07008985     0.82700
N1328       N  0.97949345  0.23432568  0.05427972    -0.79800
O1329       O  0.51485095  0.41469740  0.37192645    -0.88200
C1330       C  0.57210707  0.06537961  0.29007140     1.11800
O1331       O  0.98847055  0.44743547  0.33571117    -1.36000
O1332       O  0.57709845  0.04713641  0.36960221    -0.89700
O1333       O  0.96527783  0.38780955  0.37050552    -0.90400
O1334       O  0.95559137  0.44682848  0.39964220    -0.79200
O1335       O  0.54648163  0.48086108  0.36543586    -1.01300
C1336       C  0.98400850  0.03159390  0.38966835     1.21800
O1337       O  0.95526002  0.47632069  0.33404065    -1.36200
Mn1338     Mn  0.98731454  0.47724695  0.30153637     1.82100
O1339       O  0.98467355  0.00903618  0.39901164    -0.78300
O1340       O  0.55022487  0.06992395  0.36874914    -0.87700
C1341       C  0.98498855  0.02966673  0.27731553     1.12900
C1342       C  0.57151610  0.06706607  0.37935710     1.07700
O1343       O  0.95729741  0.44529561  0.26990191    -0.79200
O1344       O  0.51741646  0.00935644  0.33490598    -1.32900
O1345       O  0.93062527  0.41785124  0.30602487    -0.98400
C1346       C  0.89775744  0.47459507  0.37646049     1.06400
Mn1347     Mn  0.51812282  0.05064228  0.33390776     1.48600
O1348       O  0.89452983  0.44989266  0.36694818    -0.87600
Mn1349     Mn  0.94992246  0.40450618  0.33555446     1.49600
O1350       O  0.51627446  0.41383844  0.30305168    -0.91500
C1351       C  0.54150871  0.48120368  0.39283433     1.19600
C1352       C  0.99194223  0.39311833  0.29218539     1.11600
Mn1353     Mn  0.98648582  0.47820015  0.36828788     1.81000
O1354       O  0.98486442  0.03413003  0.30476187    -0.96700
Mn1355     Mn  0.52926089  0.44681561  0.33695917     1.49300
C1356       C  0.99026865  0.39334925  0.38148972     1.08100
Mn1357     Mn  0.95115718  0.01500038  0.33286055     1.49900
C1358       C  0.89972799  0.47342773  0.28727031     1.11000
O1359       O  0.92954263  0.41830670  0.36357981    -1.00800
O1360       O  0.55111713  0.06922003  0.29986743    -0.92100
C1361       C  0.93328606  0.42288948  0.39112856     1.22300
O1362       O  0.98418242  0.03484617  0.36203939    -1.02900
O1363       O  0.57732247  0.04558561  0.30079804    -0.90300
O1364       O  0.91915293  0.99868534  0.29785177    -0.89900
O1365       O  0.96662786  0.38787851  0.30182477    -0.89900
Mn1366     Mn  0.56044242  0.01361326  0.33576012     1.47900
O1367       O  0.98638692  0.00715726  0.26914655    -0.78400
C1368       C  0.93491353  0.42171103  0.27850421     1.15400
O1369       O  0.51773898  0.48024230  0.40046494    -0.77100
O1370       O  0.51891120  0.47783759  0.27121764    -0.76700
Mn1371     Mn  0.91408803  0.43569569  0.33372701     1.51100
O1372       O  0.91790400  0.99961098  0.36633501    -0.89100
O1373       O  0.54749982  0.47974129  0.30724199    -0.96600
O1374       O  0.89605152  0.44904717  0.29810252    -0.91600
C1375       C  0.54251438  0.47888804  0.27964220     1.13200
C1376       C  0.98330212  0.05386576  0.41089241    -0.12000
C1377       C  0.98183209  0.07893530  0.39989718     0.03400
C1378       C  0.98150085  0.09937929  0.42063910    -0.12600
C1379       C  0.98354044  0.09634940  0.45233780     0.18300
C1380       C  0.98491295  0.07156085  0.46351861    -0.09600
C1381       C  0.98461273  0.05051432  0.44287304    -0.02600
H1382       H  0.98014676  0.11825702  0.41189641     0.04800
C1383       C  0.98424353  0.11962304  0.47285281     0.20300
H1384       H  0.98594082  0.03174123  0.45191976     0.10000
C1385       C  0.96033961  0.11242287  0.49280022    -0.15900
C1386       C  0.95880210  0.13464644  0.00984699     0.03000
C1387       C  0.98138697  0.16464383  0.00690591    -0.11300
C1388       C  0.00537021  0.17177736  0.48720571    -0.01300
C1389       C  0.50704216  0.14959726  0.47040677    -0.06500
H1390       H  0.94237111  0.08960406  0.49435443     0.06000
H1391       H  0.52294384  0.19471948  0.48495417     0.09400
Br1392     Br  0.98878109  0.06634428  0.00657219    -0.06200
Br1393     Br  0.98102510  0.08806091  0.35713497    -0.03100
Br1394     Br  0.92415132  0.12322987  0.03455626    -0.00300
Br1395     Br  0.54114036  0.16147578  0.44468393    -0.04600
C1396       C  0.99041997  0.37329797  0.40592227    -0.12000
C1397       C  0.51439925  0.36775319  0.40972485     0.03400
C1398       C  0.01233006  0.34666053  0.43111181    -0.12600
C1399       C  0.98663466  0.33040780  0.44872345     0.18300
C1400       C  0.96290283  0.33606641  0.44551851    -0.09600
C1401       C  0.96493721  0.35738981  0.42437791    -0.02600
H1402       H  0.53047739  0.34203977  0.43318336     0.04800
C1403       C  0.98432437  0.30607834  0.46840164     0.20300
H1404       H  0.94622678  0.36108452  0.42195565     0.10000
C1405       C  0.99468052  0.31206943  0.49881489    -0.15900
C1406       C  0.99430500  0.28971381  0.01733012     0.03000
C1407       C  0.98341530  0.26059061  0.50523408    -0.11300
C1408       C  0.97306487  0.25492803  0.47464878    -0.01300
C1409       C  0.97342469  0.27724557  0.45637866    -0.06500
H1410       H  0.00351515  0.33439346  0.00803119     0.06000
H1411       H  0.96441355  0.23288204  0.46476917     0.09400
Br1412     Br  0.92691708  0.31431560  0.46869336    -0.06200
Br1413     Br  0.54939722  0.38547967  0.38452274    -0.03100
Br1414     Br  0.51068693  0.30133801  0.05799873    -0.00300
Br1415     Br  0.95902662  0.26740040  0.41491004    -0.04600
C1416       C  0.97318004  0.16074195  0.16708284    -0.12000
C1417       C  0.95659699  0.13065885  0.15744081     0.03400
C1418       C  0.95846214  0.10846532  0.17401380    -0.12600
C1419       C  0.97672653  0.11572523  0.20007427     0.18300
C1420       C  0.49377916  0.14574012  0.20927059    -0.09600
C1421       C  0.49160975  0.16784394  0.19307817    -0.02600
H1422       H  0.94521616  0.08539655  0.16688362     0.04800
C1423       C  0.97683786  0.09179332  0.21839733     0.20300
H1424       H  0.50492133  0.19082608  0.20048900     0.10000
C1425       C  0.49151117  0.07697330  0.20739251    -0.15900
C1426       C  0.49402231  0.05601154  0.22569240     0.03000
C1427       C  0.98173010  0.04980301  0.25553488    -0.11300
C1428       C  0.96647164  0.06428450  0.26595181    -0.01300
C1429       C  0.96358150  0.08468155  0.24759665    -0.06500
H1430       H  0.50177749  0.08238604  0.18490632     0.06000
H1431       H  0.95646238  0.05958774  0.28856136     0.09400
Br1432     Br  0.52101298  0.15765428  0.24330583    -0.06200
Br1433     Br  0.92966356  0.11816762  0.12315647    -0.03100
Br1434     Br  0.51641185  0.03858360  0.20970104    -0.00300
Br1435     Br  0.94111619  0.10212967  0.26344987    -0.04600
C1436       C  0.99265606  0.37391898  0.26716477    -0.12000
C1437       C  0.51522214  0.36617384  0.26481851     0.03400
C1438       C  0.51271714  0.34523561  0.24276830    -0.12600
C1439       C  0.98838688  0.33216674  0.22257679     0.18300
C1440       C  0.96702766  0.34129759  0.22349649    -0.09600
C1441       C  0.96917770  0.36181526  0.24572993    -0.02600
H1442       H  0.52931294  0.33832000  0.24204732     0.04800
C1443       C  0.98408520  0.30699216  0.20292001     0.20300
H1444       H  0.95223555  0.36822190  0.24634226     0.10000
C1445       C  0.96305312  0.27800537  0.21180546    -0.15900
C1446       C  0.95906182  0.25330825  0.19476967     0.03000
C1447       C  0.97658270  0.25743800  0.16842011    -0.11300
C1448       C  0.99695207  0.28660212  0.15899196    -0.01300
C1449       C  0.00083339  0.31129469  0.17608376    -0.06500
H1450       H  0.94972049  0.27461152  0.23216586     0.06000
H1451       H  0.51034661  0.29019430  0.13865118     0.09400
Br1452     Br  0.93455393  0.32622088  0.19484195    -0.06200
Br1453     Br  0.54882041  0.38136685  0.29214427    -0.03100
Br1454     Br  0.92813623  0.21475253  0.20762833    -0.00300
Br1455     Br  0.52885315  0.35045850  0.16188597    -0.04600
C1456       C  0.87705040  0.47468843  0.40009621    -0.12000
C1457       C  0.84769708  0.45056300  0.40400397     0.03400
C1458       C  0.82859288  0.45297651  0.42514581    -0.12600
C1459       C  0.83785508  0.47914359  0.44226106     0.18300
C1460       C  0.86702828  0.00295308  0.43880387    -0.09600
C1461       C  0.88633753  0.00056784  0.41804607    -0.02600
H1462       H  0.80601876  0.43468727  0.42753429     0.04800
C1463       C  0.81624626  0.48173991  0.46237074     0.20300
H1464       H  0.90864266  0.01933270  0.41563620     0.10000
C1465       C  0.81158321  0.47050692  0.49232477    -0.15900
C1466       C  0.79069745  0.47197819  0.01167387     0.03000
C1467       C  0.77385264  0.48494868  0.50093418    -0.11300
C1468       C  0.77886710  0.49623526  0.47075620    -0.01300
C1469       C  0.79976118  0.49471405  0.45161463    -0.06500
H1470       H  0.82408376  0.96025404  0.00058171     0.06000
H1471       H  0.76646615  0.50634571  0.46186306     0.09400
Br1472     Br  0.88116619  0.03949994  0.46132589    -0.06200
Br1473     Br  0.83101472  0.41471867  0.37964254    -0.03100
Br1474     Br  0.78553290  0.95413597  0.05151433    -0.00300
Br1475     Br  0.80481074  0.51021817  0.41067922    -0.04600
C1476       C  0.68059597  0.48875717  0.00620123    -0.12000
C1477       C  0.65113669  0.47335799  0.01774050     0.03400
C1478       C  0.62804813  0.47365484  0.50128441    -0.12600
C1479       C  0.63369313  0.48920649  0.47356470     0.18300
C1480       C  0.66317110  0.00581872  0.46292155    -0.09600
C1481       C  0.68621378  0.00516384  0.47896211    -0.02600
H1482       H  0.60539507  0.46076668  0.50955519     0.04800
C1483       C  0.60848562  0.48554524  0.45442417     0.20300
H1484       H  0.70868714  0.01765554  0.47012423     0.10000
C1485       C  0.59162391  0.99875314  0.46328461    -0.15900
C1486       C  0.56888845  0.99693653  0.44419593     0.03000
C1487       C  0.56307708  0.48187533  0.41562541    -0.11300
C1488       C  0.57944961  0.46792350  0.40753927    -0.01300
C1489       C  0.60157159  0.46924478  0.42678231    -0.06500
H1490       H  0.59667285  0.01112330  0.48469068     0.06000
H1491       H  0.57508388  0.45591179  0.38596566     0.09400
Br1492     Br  0.67288359  0.02955396  0.42639369    -0.06200
Br1493     Br  0.64021718  0.44948931  0.05431951    -0.03100
Br1494     Br  0.54821462  0.01718488  0.45737856    -0.00300
Br1495     Br  0.62173687  0.44824743  0.41437565    -0.04600
C1496       C  0.77484181  0.48433505  0.16659110    -0.12000
C1497       C  0.78215292  0.49542139  0.19709175     0.03400
C1498       C  0.80417310  0.49299692  0.21328720    -0.12600
C1499       C  0.81966832  0.48021027  0.19968169     0.18300
C1500       C  0.81341804  0.47022437  0.16907086    -0.09600
C1501       C  0.79114700  0.47225912  0.15279859    -0.02600
H1502       H  0.80935437  0.00124868  0.23671587     0.04800
C1503       C  0.84183706  0.47714660  0.21832133     0.20300
H1504       H  0.78632682  0.46396623  0.12938552     0.10000
C1505       C  0.83326586  0.45026044  0.23349273    -0.15900
C1506       C  0.85217797  0.44775252  0.25480650     0.03000
C1507       C  0.88028149  0.47291808  0.26169029    -0.11300
C1508       C  0.88929352  0.49923903  0.24481325    -0.01300
C1509       C  0.87044967  0.50145770  0.22332095    -0.06500
H1510       H  0.81127116  0.43134132  0.22943017     0.06000
H1511       H  0.91095216  0.01857724  0.24876813     0.09400
Br1512     Br  0.83513454  0.45410965  0.14869534    -0.06200
Br1513     Br  0.76464576  0.01586282  0.21771345    -0.03100
Br1514     Br  0.83700811  0.40971094  0.27441144    -0.00300
Br1515     Br  0.88438756  0.03826352  0.20169126    -0.04600
C1516       C  0.56433882  0.47967194  0.25711207    -0.12000
C1517       C  0.55575038  0.46330394  0.22923244     0.03400
C1518       C  0.57750463  0.46379403  0.20961700    -0.12600
C1519       C  0.60781434  0.48088894  0.21703020     0.18300
C1520       C  0.61638118  0.49828702  0.24399365    -0.09600
C1521       C  0.59477378  0.49706260  0.26405749    -0.02600
H1522       H  0.57076214  0.45041276  0.18883878     0.04800
C1523       C  0.63044151  0.47945495  0.19750403     0.20300
H1524       H  0.60185567  0.01017617  0.28500301     0.10000
C1525       C  0.64070661  0.49694350  0.17097862    -0.15900
C1526       C  0.66452230  0.49857857  0.15409029     0.03000
C1527       C  0.67856583  0.48249887  0.16388474    -0.11300
C1528       C  0.66763104  0.46447048  0.19010341    -0.01300
C1529       C  0.64365332  0.46265287  0.20665805    -0.06500
H1530       H  0.63075880  0.01008396  0.16395002     0.06000
H1531       H  0.67769728  0.45160453  0.19772458     0.09400
Br1532     Br  0.65747260  0.02440440  0.25404315    -0.06200
Br1533     Br  0.51482888  0.43853404  0.21754878    -0.03100
Br1534     Br  0.67806614  0.02504134  0.11949076    -0.00300
Br1535     Br  0.62963432  0.43702389  0.24181603    -0.04600
C1536       C  0.79775681  0.29186739  0.00827980    -0.12000
C1537       C  0.82785400  0.30034492  0.01364106     0.03400
C1538       C  0.85052159  0.32404523  0.49725446    -0.12600
C1539       C  0.84381123  0.33954147  0.47524837     0.18300
C1540       C  0.81385389  0.33144426  0.47018523    -0.09600
C1541       C  0.79114148  0.30778408  0.48658913    -0.02600
H1542       H  0.87340813  0.32955688  0.50070063     0.04800
C1543       C  0.86773174  0.36108965  0.45484481     0.20300
H1544       H  0.76820670  0.30164704  0.48220956     0.10000
C1545       C  0.86941068  0.35184801  0.42503087    -0.15900
C1546       C  0.89097987  0.37112145  0.40434975     0.03000
C1547       C  0.91156510  0.40086764  0.41326890    -0.11300
C1548       C  0.91041021  0.40975510  0.44366134    -0.01300
C1549       C  0.88882633  0.39009612  0.46441223    -0.06500
H1550       H  0.85369922  0.32929999  0.41778344     0.06000
H1551       H  0.92595046  0.43223551  0.45118445     0.09400
Br1552     Br  0.80302540  0.35183506  0.44063659    -0.06200
Br1553     Br  0.83922482  0.27829379  0.04034713    -0.03100
Br1554     Br  0.89099536  0.35427494  0.36483806    -0.00300
Br1555     Br  0.88842372  0.40393703  0.50525475    -0.04600
C1556       C  0.70239161  0.19679639  0.50339783    -0.12000
C1557       C  0.67467849  0.17539706  0.01623640     0.03400
C1558       C  0.65260454  0.15336661  0.49740895    -0.12600
C1559       C  0.65732686  0.15200679  0.46589293     0.18300
C1560       C  0.68460121  0.17313698  0.45301824    -0.09600
C1561       C  0.70671392  0.19518058  0.47160466    -0.02600
H1562       H  0.63148219  0.13730337  0.50736906     0.04800
C1563       C  0.63340863  0.12900967  0.44636907     0.20300
H1564       H  0.72758556  0.21094777  0.46100933     0.10000
C1565       C  0.61451542  0.13628509  0.43026774    -0.15900
C1566       C  0.59364226  0.11636163  0.40906691     0.03000
C1567       C  0.59131060  0.08818800  0.40363942    -0.11300
C1568       C  0.60985869  0.08078939  0.42071133    -0.01300
C1569       C  0.63059287  0.10080365  0.44193510    -0.06500
H1570       H  0.61670027  0.15806055  0.43352186     0.06000
H1571       H  0.60862381  0.05946218  0.41726524     0.09400
Br1572     Br  0.69265473  0.17247012  0.41004394    -0.06200
Br1573     Br  0.66428739  0.17517418  0.05870738    -0.03100
Br1574     Br  0.57113802  0.13064958  0.38696785    -0.00300
Br1575     Br  0.65536857  0.08915311  0.46364031    -0.04600
C1576       C  0.80172923  0.27929611  0.16856157    -0.12000
C1577       C  0.83181497  0.29243787  0.15962328     0.03400
C1578       C  0.85382847  0.31654137  0.17636142    -0.12600
C1579       C  0.84646995  0.32735406  0.20255008     0.18300
C1580       C  0.81658040  0.31366449  0.21209196    -0.09600
C1581       C  0.79450956  0.28992085  0.19508313    -0.02600
H1582       H  0.87685692  0.32635993  0.16942910     0.04800
C1583       C  0.87041906  0.35161444  0.22079823     0.20300
H1584       H  0.77156600  0.27993802  0.20243053     0.10000
C1585       C  0.88307638  0.38131797  0.21104389    -0.15900
C1586       C  0.90488808  0.40472025  0.22886952     0.03000
C1587       C  0.91409830  0.39836493  0.25701189    -0.11300
C1588       C  0.90149320  0.36852759  0.26633960    -0.01300
C1589       C  0.88029004  0.34530478  0.24833906    -0.06500
H1590       H  0.87550015  0.38632843  0.18985260     0.06000
H1591       H  0.90825438  0.36314228  0.28783276     0.09400
Br1592     Br  0.80491616  0.32658904  0.24826682    -0.06200
Br1593     Br  0.84443086  0.27654502  0.12674413    -0.03100
Br1594     Br  0.91939557  0.44475387  0.21494923    -0.00300
Br1595     Br  0.86551121  0.30523893  0.26228404    -0.04600
C1596       C  0.59181294  0.08492837  0.26526941    -0.12000
C1597       C  0.60093691  0.11561793  0.26372601     0.03400
C1598       C  0.62150156  0.13359214  0.24138344    -0.12600
C1599       C  0.63359512  0.12172522  0.22059830     0.18300
C1600       C  0.62417845  0.09114503  0.22167580    -0.09600
C1601       C  0.60338890  0.07304061  0.24371782    -0.02600
H1602       H  0.62908778  0.15724643  0.24105757     0.04800
C1603       C  0.65825763  0.14217266  0.20030433     0.20300
H1604       H  0.59655572  0.04959866  0.24426793     0.10000
C1605       C  0.68748742  0.15051663  0.20876809    -0.15900
C1606       C  0.71171204  0.17141604  0.19161199     0.03000
C1607       C  0.70690744  0.18472767  0.16555777    -0.11300
C1608       C  0.67750614  0.17523185  0.15627706    -0.01300
C1609       C  0.65328270  0.15421007  0.17348364    -0.06500
H1610       H  0.69146517  0.14089458  0.22904371     0.06000
H1611       H  0.67333591  0.18491724  0.13619018     0.09400
Br1612     Br  0.63969021  0.07339620  0.19386745    -0.06200
Br1613     Br  0.58883417  0.13513598  0.29331827    -0.03100
Br1614     Br  0.75064121  0.17971171  0.20417716    -0.00300
Br1615     Br  0.61384319  0.14265221  0.15968218    -0.04600
C1616       C  0.73189356  0.20961413  0.64902961     0.80200
N1617       N  0.73098709  0.21202002  0.61793949    -0.78100
C1618       C  0.75333954  0.23566442  0.60306980     0.82600
N1619       N  0.77649522  0.25707105  0.61949904    -0.78100
C1620       C  0.77750191  0.25501283  0.65055436     0.82700
N1621       N  0.75497730  0.23144265  0.66517701    -0.79800
C1622       C  0.72727751  0.22057917  0.52196638     0.80200
N1623       N  0.72896276  0.21763209  0.55284621    -0.78100
C1624       C  0.75212215  0.23873401  0.56950765     0.82600
N1625       N  0.77415793  0.26284785  0.55502925    -0.78100
C1626       C  0.77310445  0.26604353  0.52414488     0.82700
N1627       N  0.74953517  0.24497885  0.50780051    -0.79800
C1628       C  0.75054684  0.48488483  0.64883274     0.80200
N1629       N  0.72665894  0.48338081  0.66356188    -0.78100
C1630       C  0.70446474  0.48405670  0.64757104     0.82600
N1631       N  0.70593829  0.48541327  0.61650331    -0.78100
C1632       C  0.72932639  0.48646595  0.60135651     0.82700
N1633       N  0.75161015  0.48614316  0.61753528    -0.79800
C1634       C  0.75043831  0.48632740  0.51967675     0.80200
N1635       N  0.75137418  0.48654312  0.55098822    -0.78100
C1636       C  0.72963111  0.48744890  0.56762035     0.82600
N1637       N  0.70704393  0.48831479  0.55289811    -0.78100
C1638       C  0.70568033  0.48811129  0.52184491     0.82700
N1639       N  0.72757409  0.48735896  0.50531428    -0.79800
C1640       C  0.97465474  0.23193817  0.65098623     0.80200
N1641       N  0.97592187  0.23266048  0.61976677    -0.78100
C1642       C  0.97522735  0.20971800  0.60377499     0.82600
N1643       N  0.97366466  0.18617960  0.61914416    -0.78100
C1644       C  0.97257789  0.18528471  0.65031432     0.82700
N1645       N  0.97339262  0.20839489  0.66611275    -0.79800
C1646       C  0.98242698  0.23561620  0.52315692     0.80200
N1647       N  0.98298093  0.21281455  0.50805119    -0.78100
C1648       C  0.98036066  0.18893623  0.52361700     0.82600
N1649       N  0.97764211  0.18801125  0.55464031    -0.78100
C1650       C  0.97731825  0.21069027  0.57009068     0.82700
N1651       N  0.97949221  0.23432519  0.55428039    -0.79800
O1652       O  0.51484904  0.41469639  0.87192544    -0.88200
C1653       C  0.57210866  0.06537933  0.79007350     1.11800
O1654       O  0.98847110  0.44743598  0.83571037    -1.36000
O1655       O  0.57709865  0.04713498  0.86960357    -0.89700
O1656       O  0.96527817  0.38780951  0.87050339    -0.90400
O1657       O  0.95559250  0.44682896  0.89964158    -0.79200
O1658       O  0.54648168  0.48086055  0.86543480    -1.01300
C1659       C  0.98400786  0.03159328  0.88966920     1.21800
O1660       O  0.95526061  0.47632120  0.83404044    -1.36200
Mn1661     Mn  0.98731505  0.47724764  0.80153580     1.82100
O1662       O  0.98467335  0.00903575  0.89901231    -0.78300
O1663       O  0.55022569  0.06992319  0.86875075    -0.87700
C1664       C  0.98499099  0.02966933  0.77731659     1.12900
C1665       C  0.57151675  0.06706497  0.87935856     1.07700
O1666       O  0.95729788  0.44529663  0.76990145    -0.79200
O1667       O  0.51741658  0.00935630  0.83490656    -1.32900
O1668       O  0.93062541  0.41785197  0.80602416    -0.98400
C1669       C  0.89775804  0.47459580  0.87646081     1.06400
Mn1670     Mn  0.51812410  0.05064261  0.83390901     1.48600
O1671       O  0.89453054  0.44989335  0.86694865    -0.87600
Mn1672     Mn  0.94992285  0.40450682  0.83555324     1.49600
O1673       O  0.51627385  0.41383830  0.80305055    -0.91500
C1674       C  0.54150902  0.48120357  0.89283326     1.19600
C1675       C  0.99194263  0.39311947  0.79218380     1.11600
Mn1676     Mn  0.98648669  0.47820063  0.86828730     1.81000
O1677       O  0.98486669  0.03413159  0.80476309    -0.96700
Mn1678     Mn  0.52926035  0.44681504  0.83695814     1.49300
C1679       C  0.99026863  0.39334917  0.88148852     1.08100
Mn1680     Mn  0.95115868  0.01500275  0.83286056     1.49900
C1681       C  0.89972834  0.47342826  0.78727052     1.11000
O1682       O  0.92954319  0.41830699  0.86357944    -1.00800
O1683       O  0.55111898  0.06922015  0.79986951    -0.92100
C1684       C  0.93328706  0.42288997  0.89112817     1.22300
O1685       O  0.98418318  0.03484652  0.86204034    -1.02900
O1686       O  0.57732323  0.04558452  0.80079942    -0.90300
O1687       O  0.91915526  0.99868924  0.79785070    -0.89900
O1688       O  0.96662827  0.38788005  0.80182276    -0.89900
Mn1689     Mn  0.56044203  0.01361177  0.83576111     1.47900
O1690       O  0.98638871  0.00715969  0.76914667    -0.78400
C1691       C  0.93491384  0.42171211  0.77850350     1.15400
O1692       O  0.51773937  0.48024231  0.90046388    -0.77100
O1693       O  0.51891152  0.47783824  0.77121670    -0.76700
Mn1694     Mn  0.91408850  0.43569628  0.83372702     1.51100
O1695       O  0.91790475  0.99961431  0.86633419    -0.89100
O1696       O  0.54750000  0.47974065  0.80724071    -0.96600
O1697       O  0.89605178  0.44904779  0.79810297    -0.91600
C1698       C  0.54251435  0.47888776  0.77964091     1.13200
C1699       C  0.98329863  0.05386349  0.91089325    -0.12000
C1700       C  0.98182048  0.07892864  0.89989804     0.03400
C1701       C  0.98148792  0.09937196  0.92063982    -0.12600
C1702       C  0.98353393  0.09634566  0.95233811     0.18300
C1703       C  0.98491346  0.07156096  0.96351903    -0.09600
C1704       C  0.98461470  0.05051503  0.94287368    -0.02600
H1705       H  0.98012821  0.11824659  0.91189731     0.04800
C1706       C  0.98423789  0.11961997  0.97285237     0.20300
H1707       H  0.98594868  0.03174514  0.95192028     0.10000
C1708       C  0.96033615  0.11242008  0.99280277    -0.15900
C1709       C  0.95880498  0.13464855  0.50984517     0.03000
C1710       C  0.98139120  0.16464575  0.50690751    -0.11300
C1711       C  0.00536368  0.17177513  0.98720087    -0.01300
C1712       C  0.50703629  0.14959446  0.97040516    -0.06500
H1713       H  0.94236876  0.08960096  0.99435974     0.06000
H1714       H  0.52293826  0.19471716  0.98495094     0.09400
Br1715     Br  0.98877282  0.06633931  0.50657228    -0.06200
Br1716     Br  0.98100318  0.08804890  0.85713598    -0.03100
Br1717     Br  0.92415205  0.12323150  0.53455105    -0.00300
Br1718     Br  0.54113328  0.16147233  0.94468062    -0.04600
C1719       C  0.99041886  0.37329720  0.90592102    -0.12000
C1720       C  0.51439738  0.36775391  0.90972649     0.03400
C1721       C  0.01232982  0.34666245  0.93111469    -0.12600
C1722       C  0.98663188  0.33040589  0.94872169     0.18300
C1723       C  0.96289802  0.33606074  0.94551204    -0.09600
C1724       C  0.96493341  0.35738502  0.92437212    -0.02600
H1725       H  0.53047667  0.34204323  0.93318865     0.04800
C1726       C  0.98432174  0.30607668  0.96840013     0.20300
H1727       H  0.94622157  0.36107707  0.92194662     0.10000
C1728       C  0.99468060  0.31206880  0.99881241    -0.15900
C1729       C  0.99430460  0.28971414  0.51733240     0.03000
C1730       C  0.98341330  0.26058954  0.00523298    -0.11300
C1731       C  0.97306029  0.25492593  0.97464857    -0.01300
C1732       C  0.97341990  0.27724322  0.95637819    -0.06500
H1733       H  0.00351323  0.33439351  0.50803460     0.06000
H1734       H  0.96440736  0.23287943  0.96476979     0.09400
Br1735     Br  0.92690837  0.31430381  0.96867950    -0.06200
Br1736     Br  0.54939874  0.38548451  0.88452952    -0.03100
Br1737     Br  0.51068414  0.30133711  0.55800317    -0.00300
Br1738     Br  0.95901973  0.26739706  0.91491033    -0.04600
C1739       C  0.97317620  0.16074375  0.66708663    -0.12000
C1740       C  0.95659872  0.13066080  0.65744262     0.03400
C1741       C  0.95846543  0.10846872  0.67401677    -0.12600
C1742       C  0.97672606  0.11572981  0.70008038     0.18300
C1743       C  0.49377241  0.14574287  0.70927790    -0.09600
C1744       C  0.49160211  0.16784567  0.69308439    -0.02600
H1745       H  0.94522375  0.08540013  0.66688483     0.04800
C1746       C  0.97683983  0.09179871  0.71840295     0.20300
H1747       H  0.50491088  0.19082782  0.70049647     0.10000
C1748       C  0.49151001  0.07697682  0.70739535    -0.15900
C1749       C  0.49402162  0.05601435  0.72569362     0.03000
C1750       C  0.98173255  0.04980659  0.75553724    -0.11300
C1751       C  0.96647283  0.06428645  0.76595521    -0.01300
C1752       C  0.96358218  0.08468411  0.74760160    -0.06500
H1753       H  0.50177521  0.08238989  0.68490866     0.06000
H1754       H  0.95646250  0.05958757  0.78856427     0.09400
Br1755     Br  0.52100260  0.15765874  0.74331656    -0.06200
Br1756     Br  0.92967092  0.11816720  0.62315331    -0.03100
Br1757     Br  0.51640882  0.03858523  0.70969884    -0.00300
Br1758     Br  0.94111291  0.10212767  0.76345547    -0.04600
C1759       C  0.99265627  0.37392129  0.76716192    -0.12000
C1760       C  0.51522110  0.36617487  0.76481524     0.03400
C1761       C  0.51271586  0.34523728  0.74276408    -0.12600
C1762       C  0.98838530  0.33217039  0.72257158     0.18300
C1763       C  0.96702825  0.34130404  0.72349099    -0.09600
C1764       C  0.96917925  0.36182110  0.74572554    -0.02600
H1765       H  0.52931046  0.33832019  0.74204346     0.04800
C1766       C  0.98408094  0.30699479  0.70291511     0.20300
H1767       H  0.95223854  0.36822991  0.74633772     0.10000
C1768       C  0.96304878  0.27800872  0.71180253    -0.15900
C1769       C  0.95905559  0.25331043  0.69476770     0.03000
C1770       C  0.97657498  0.25743830  0.66841739    -0.11300
C1771       C  0.99694375  0.28660177  0.65898681    -0.01300
C1772       C  0.00082660  0.31129552  0.67607734    -0.06500
H1773       H  0.94971763  0.27461635  0.73216389     0.06000
H1774       H  0.51033888  0.29019307  0.63864546     0.09400
Br1775     Br  0.93455578  0.32623120  0.69483518    -0.06200
Br1776     Br  0.54881801  0.38136482  0.79214264    -0.03100
Br1777     Br  0.92812967  0.21475585  0.70762866    -0.00300
Br1778     Br  0.52884688  0.35045871  0.66187652    -0.04600
C1779       C  0.87705064  0.47468913  0.90009621    -0.12000
C1780       C  0.84769654  0.45056454  0.90400201     0.03400
C1781       C  0.82859198  0.45297802  0.92514344    -0.12600
C1782       C  0.83785468  0.47914417  0.94226055     0.18300
C1783       C  0.86702589  0.00295841  0.93879867    -0.09600
C1784       C  0.88633549  0.00057381  0.91804084    -0.02600
H1785       H  0.80601735  0.43468939  0.92753044     0.04800
C1786       C  0.81624585  0.48174014  0.96237080     0.20300
H1787       H  0.90863881  0.01934091  0.91562747     0.10000
C1788       C  0.81158345  0.47050726  0.99232486    -0.15900
C1789       C  0.79069757  0.47197883  0.51167343     0.03000
C1790       C  0.77385103  0.48494650  0.00093481    -0.11300
C1791       C  0.77886511  0.49623336  0.97075692    -0.01300
C1792       C  0.79975995  0.49471359  0.95161520    -0.06500
H1793       H  0.82408506  0.96025482  0.50058323     0.06000
H1794       H  0.76646342  0.50634310  0.96186403     0.09400
Br1795     Br  0.88116050  0.03950784  0.96131516    -0.06200
Br1796     Br  0.83101396  0.41472147  0.87963855    -0.03100
Br1797     Br  0.78553541  0.95413943  0.55151578    -0.00300
Br1798     Br  0.80480986  0.51021935  0.91068053    -0.04600
C1799       C  0.68059811  0.48876016  0.50620036    -0.12000
C1800       C  0.65113894  0.47335925  0.51773971     0.03400
C1801       C  0.62804677  0.47365494  0.00128475    -0.12600
C1802       C  0.63369291  0.48920663  0.97356490     0.18300
C1803       C  0.66316905  0.00581522  0.96292232    -0.09600
C1804       C  0.68621177  0.00516069  0.97896312    -0.02600
H1805       H  0.60539355  0.46076786  0.00955528     0.04800
C1806       C  0.60848618  0.48554618  0.95442354     0.20300
H1807       H  0.70868507  0.01765228  0.97012516     0.10000
C1808       C  0.59162165  0.99874923  0.96328574    -0.15900
C1809       C  0.56888668  0.99693349  0.94419687     0.03000
C1810       C  0.56307778  0.48187595  0.91562428    -0.11300
C1811       C  0.57945092  0.46792481  0.90753815    -0.01300
C1812       C  0.60157288  0.46924627  0.92678133    -0.06500
H1813       H  0.59667026  0.01111872  0.98469216     0.06000
H1814       H  0.57508558  0.45591331  0.88596433     0.09400
Br1815     Br  0.67288169  0.02955076  0.92639466    -0.06200
Br1816     Br  0.64022085  0.44948960  0.55431798    -0.03100
Br1817     Br  0.54821376  0.01718268  0.95737967    -0.00300
Br1818     Br  0.62173896  0.44824974  0.91437450    -0.04600
C1819       C  0.77483999  0.48433207  0.66659120    -0.12000
C1820       C  0.78214826  0.49541464  0.69709346     0.03400
C1821       C  0.80416922  0.49299112  0.71328848    -0.12600
C1822       C  0.81966767  0.48020869  0.69968149     0.18300
C1823       C  0.81341947  0.47022556  0.66906967    -0.09600
C1824       C  0.79114804  0.47225983  0.65279749    -0.02600
H1825       H  0.80935205  0.00124657  0.73671546     0.04800
C1826       C  0.84183703  0.47714575  0.71832091     0.20300
H1827       H  0.78632986  0.46396945  0.62938341     0.10000
C1828       C  0.83326657  0.45025962  0.73349198    -0.15900
C1829       C  0.85217885  0.44775218  0.75480587     0.03000
C1830       C  0.88028179  0.47291833  0.76169037    -0.11300
C1831       C  0.88929320  0.49923936  0.74481368    -0.01300
C1832       C  0.87044922  0.50145747  0.72332106    -0.06500
H1833       H  0.81127220  0.43133999  0.72942898     0.06000
H1834       H  0.91095017  0.01858495  0.74877341     0.09400
Br1835     Br  0.83513899  0.45411479  0.64869299    -0.06200
Br1836     Br  0.76463975  0.01585586  0.71771475    -0.03100
Br1837     Br  0.83701004  0.40971016  0.77440960    -0.00300
Br1838     Br  0.88438379  0.03827127  0.70169873    -0.04600
C1839       C  0.56433827  0.47967136  0.75711012    -0.12000
C1840       C  0.55574916  0.46330529  0.72922925     0.03400
C1841       C  0.57750276  0.46379454  0.70961342    -0.12600
C1842       C  0.60781254  0.48088727  0.71702701     0.18300
C1843       C  0.61638019  0.49828455  0.74399102    -0.09600
C1844       C  0.59477338  0.49706038  0.76405564    -0.02600
H1845       H  0.57075965  0.45041446  0.68883431     0.04800
C1846       C  0.63043897  0.47945230  0.69750042     0.20300
H1847       H  0.60185532  0.01017364  0.78500328     0.10000
C1848       C  0.64070492  0.49694146  0.67097553    -0.15900
C1849       C  0.66452066  0.49857636  0.65408746     0.03000
C1850       C  0.67856383  0.48249629  0.66388203    -0.11300
C1851       C  0.66762775  0.46446677  0.69009980    -0.01300
C1852       C  0.64364954  0.46264889  0.70665377    -0.06500
H1853       H  0.63075724  0.01008147  0.66394949     0.06000
H1854       H  0.67769326  0.45160008  0.69772069     0.09400
Br1855     Br  0.65747177  0.02440088  0.75404267    -0.06200
Br1856     Br  0.51482754  0.43853982  0.71754361    -0.03100
Br1857     Br  0.67806325  0.02503735  0.61948905    -0.00300
Br1858     Br  0.62962778  0.43701725  0.74180959    -0.04600
C1859       C  0.79775640  0.29186456  0.50827930    -0.12000
C1860       C  0.82785386  0.30034364  0.51364146     0.03400
C1861       C  0.85052212  0.32404630  0.99725419    -0.12600
C1862       C  0.84381239  0.33954399  0.97524928     0.18300
C1863       C  0.81385538  0.33144855  0.97018723    -0.09600
C1864       C  0.79114253  0.30778842  0.98659086    -0.02600
H1865       H  0.87340837  0.32955667  0.00069953     0.04800
C1866       C  0.86773297  0.36109163  0.95484546     0.20300
H1867       H  0.76820797  0.30165259  0.98221205     0.10000
C1868       C  0.86941176  0.35184927  0.92503179    -0.15900
C1869       C  0.89098086  0.37112228  0.90435032     0.03000
C1870       C  0.91156622  0.40086859  0.91326888    -0.11300
C1871       C  0.91041146  0.40975675  0.94366106    -0.01300
C1872       C  0.88882755  0.39009832  0.96441225    -0.06500
H1873       H  0.85370024  0.32930120  0.91778486     0.06000
H1874       H  0.92595173  0.43223731  0.95118367     0.09400
Br1875     Br  0.80302809  0.35184170  0.94064026    -0.06200
Br1876     Br  0.83922576  0.27829426  0.54034870    -0.03100
Br1877     Br  0.89099589  0.35427513  0.86483889    -0.00300
Br1878     Br  0.88842479  0.40394027  0.00525423    -0.04600
C1879       C  0.70239251  0.19679804  0.00339772    -0.12000
C1880       C  0.67467608  0.17539810  0.51623571     0.03400
C1881       C  0.65260738  0.15336493  0.99740985    -0.12600
C1882       C  0.65732838  0.15200704  0.96589322     0.18300
C1883       C  0.68460109  0.17313991  0.95301772    -0.09600
C1884       C  0.70671350  0.19518412  0.97160394    -0.02600
H1885       H  0.63148615  0.13729964  0.00737064     0.04800
C1886       C  0.63341018  0.12900949  0.94636957     0.20300
H1887       H  0.72758393  0.21095334  0.96100788     0.10000
C1888       C  0.61451610  0.13628425  0.93026903    -0.15900
C1889       C  0.59364274  0.11636050  0.90906852     0.03000
C1890       C  0.59131160  0.08818711  0.90364065    -0.11300
C1891       C  0.60986051  0.08078908  0.92071185    -0.01300
C1892       C  0.63059507  0.10080377  0.94193517    -0.06500
H1893       H  0.61670037  0.15805937  0.93352349     0.06000
H1894       H  0.60862603  0.05946214  0.91726552     0.09400
Br1895     Br  0.69265282  0.17247581  0.91004251    -0.06200
Br1896     Br  0.66428376  0.17517851  0.55870570    -0.03100
Br1897     Br  0.57113744  0.13064792  0.88697059    -0.00300
Br1898     Br  0.65537234  0.08915430  0.96363889    -0.04600
C1899       C  0.80173030  0.27929769  0.66855992    -0.12000
C1900       C  0.83181563  0.29244084  0.65961956     0.03400
C1901       C  0.85382950  0.31654464  0.67635708    -0.12600
C1902       C  0.84647185  0.32735631  0.70254711     0.18300
C1903       C  0.81658273  0.31366584  0.71209060    -0.09600
C1904       C  0.79451151  0.28992183  0.69508252    -0.02600
H1905       H  0.87685762  0.32636408  0.66942325     0.04800
C1906       C  0.87042139  0.35161636  0.72079524     0.20300
H1907       H  0.77156831  0.27993824  0.70243136     0.10000
C1908       C  0.88307888  0.38132005  0.71104140    -0.15900
C1909       C  0.90488985  0.40472206  0.72886789     0.03000
C1910       C  0.91409908  0.39836630  0.75701066    -0.11300
C1911       C  0.90149408  0.36852880  0.76633770    -0.01300
C1912       C  0.88029180  0.34530626  0.74833622    -0.06500
H1913       H  0.87550314  0.38633086  0.68985001     0.06000
H1914       H  0.90825474  0.36314315  0.78783100     0.09400
Br1915     Br  0.80491954  0.32658986  0.74826660    -0.06200
Br1916     Br  0.84443089  0.27654950  0.62673849    -0.03100
Br1917     Br  0.91939756  0.44475593  0.71494827    -0.00300
Br1918     Br  0.86551340  0.30524014  0.76228012    -0.04600
C1919       C  0.59181523  0.08492889  0.76527257    -0.12000
C1920       C  0.60094165  0.11561915  0.76373250     0.03400
C1921       C  0.62150600  0.13359396  0.74139008    -0.12600
C1922       C  0.63359712  0.12172697  0.72060209     0.18300
C1923       C  0.62417864  0.09114625  0.72167690    -0.09600
C1924       C  0.60338915  0.07304120  0.74371864    -0.02600
H1925       H  0.62909395  0.15724868  0.74106654     0.04800
C1926       C  0.65825920  0.14217462  0.70030792     0.20300
H1927       H  0.59655438  0.04959867  0.74426670     0.10000
C1928       C  0.68748914  0.15051896  0.70877129    -0.15900
C1929       C  0.71171341  0.17141826  0.69161473     0.03000
C1930       C  0.70690824  0.18472915  0.66556019    -0.11300
C1931       C  0.67750675  0.17523318  0.65628013    -0.01300
C1932       C  0.65328368  0.15421178  0.67348738    -0.06500
H1933       H  0.69146728  0.14089725  0.72904697     0.06000
H1934       H  0.67333609  0.18491824  0.63619318     0.09400
Br1935     Br  0.63968819  0.07339763  0.69386553    -0.06200
Br1936     Br  0.58884306  0.13513692  0.79332949    -0.03100
Br1937     Br  0.75064287  0.17971491  0.70417994    -0.00300
Br1938     Br  0.61384387  0.14265439  0.65968733    -0.04600
C1939       C  0.73189291  0.70961113  0.14902939     0.80200
N1940       N  0.73098713  0.71201827  0.11793942    -0.78100
C1941       C  0.75333965  0.73566343  0.10307078     0.82600
N1942       N  0.77649475  0.75706969  0.11950099    -0.78100
C1943       C  0.77750075  0.75501020  0.15055629     0.82700
N1944       N  0.75497607  0.73143916  0.16517786    -0.79800
C1945       C  0.72727873  0.72057858  0.02196708     0.80200
N1946       N  0.72896393  0.71763148  0.05284687    -0.78100
C1947       C  0.75212267  0.73873380  0.06950867     0.82600
N1948       N  0.77415802  0.76284827  0.05503062    -0.78100
C1949       C  0.77310459  0.76604408  0.02414621     0.82700
N1950       N  0.74953589  0.74497888  0.00780155    -0.79800
C1951       C  0.75054683  0.98488470  0.14883393     0.80200
N1952       N  0.72665953  0.98338172  0.16356323    -0.78100
C1953       C  0.70446482  0.98405657  0.14757243     0.82600
N1954       N  0.70593713  0.98541097  0.11650457    -0.78100
C1955       C  0.72932467  0.98646250  0.10135762     0.82700
N1956       N  0.75160900  0.98614085  0.11753638    -0.79800
C1957       C  0.75043560  0.98632124  0.01967792     0.80200
N1958       N  0.75137163  0.98653762  0.05098941    -0.78100
C1959       C  0.72962840  0.98744333  0.06762137     0.82600
N1960       N  0.70704091  0.98830851  0.05289898    -0.78100
C1961       C  0.70567718  0.98810441  0.02184577     0.82700
N1962       N  0.72757109  0.98735216  0.00531533    -0.79800
C1963       C  0.97465989  0.73193785  0.15098756     0.80200
N1964       N  0.97592624  0.73266107  0.11976801    -0.78100
C1965       C  0.97523033  0.70971848  0.10377500     0.82600
N1966       N  0.97366698  0.68617923  0.11914295    -0.78100
C1967       C  0.97258117  0.68528362  0.15031304     0.82700
N1968       N  0.97339729  0.70839376  0.16611280    -0.79800
C1969       C  0.98242636  0.73561593  0.02315680     0.80200
N1970       N  0.98297949  0.71281399  0.00805083    -0.78100
C1971       C  0.98035997  0.68893597  0.02361652     0.82600
N1972       N  0.97764297  0.68801158  0.05463993    -0.78100
C1973       C  0.97731996  0.71069088  0.07009061     0.82700
N1974       N  0.97949324  0.73432563  0.05428050    -0.79800
O1975       O  0.51485368  0.91469883  0.37192640    -0.88200
C1976       C  0.57210702  0.56537951  0.29007302     1.11800
O1977       O  0.98847258  0.94743623  0.33571103    -1.36000
O1978       O  0.57709749  0.54713570  0.36960387    -0.89700
O1979       O  0.96528338  0.88781194  0.37050595    -0.90400
O1980       O  0.95559250  0.94682834  0.39964190    -0.79200
O1981       O  0.54648278  0.98086210  0.36543491    -1.01300
C1982       C  0.98400768  0.53159371  0.38966896     1.21800
O1983       O  0.95526040  0.97631966  0.33404056    -1.36200
Mn1984     Mn  0.98731512  0.97724682  0.30153603     1.82100
O1985       O  0.98467310  0.50903616  0.39901218    -0.78300
O1986       O  0.55022398  0.56992331  0.36875003    -0.87700
C1987       C  0.98498992  0.52966797  0.27731609     1.12900
C1988       C  0.57151496  0.56706536  0.37935846     1.07700
O1989       O  0.95729826  0.94529472  0.26990192    -0.79200
O1990       O  0.51741599  0.50935643  0.33490669    -1.32900
O1991       O  0.93062692  0.91784990  0.30602504    -0.98400
C1992       C  0.89775736  0.97459242  0.37646088     1.06400
Mn1993     Mn  0.51812253  0.55064235  0.33390850     1.48600
O1994       O  0.89452976  0.94989012  0.36694801    -0.87600
Mn1995     Mn  0.94992558  0.90450637  0.33555473     1.49600
O1996       O  0.51627687  0.91383895  0.30305166    -0.91500
C1997       C  0.54151006  0.98120477  0.39283343     1.19600
C1998       C  0.99194639  0.89311976  0.29218609     1.11600
Mn1999     Mn  0.98648685  0.97820046  0.36828750     1.81000
O2000       O  0.98486548  0.53413106  0.30476243    -0.96700
Mn2001     Mn  0.52926256  0.94681642  0.33695864     1.49300
C2002       C  0.99027429  0.89335272  0.38149075     1.08100
Mn2003     Mn  0.95115770  0.51500190  0.33286033     1.49900
C2004       C  0.89972757  0.97342534  0.28727073     1.11000
O2005       O  0.92954383  0.91830491  0.36358000    -1.00800
O2006       O  0.55111705  0.56921999  0.29986869    -0.92100
C2007       C  0.93328781  0.92288852  0.39112865     1.22300
O2008       O  0.98418231  0.53484641  0.36204001    -1.02900
O2009       O  0.57732225  0.54558541  0.30079972    -0.90300
O2010       O  0.91915403  0.49868768  0.29785085    -0.89900
O2011       O  0.96663197  0.88787998  0.30182511    -0.89900
Mn2012     Mn  0.56044172  0.51361271  0.33576143     1.47900
O2013       O  0.98638786  0.50715828  0.26914702    -0.78400
C2014       C  0.93491490  0.92170975  0.27850433     1.15400
O2015       O  0.51774001  0.98024262  0.40046425    -0.77100
O2016       O  0.51891151  0.97783768  0.27121693    -0.76700
Mn2017     Mn  0.91408888  0.93569377  0.33372701     1.51100
O2018       O  0.91790401  0.49961329  0.36633396    -0.89100
O2019       O  0.54750053  0.97974167  0.30724100    -0.96600
O2020       O  0.89605198  0.94904487  0.29810233    -0.91600
C2021       C  0.54251471  0.97888811  0.27964127     1.13200
C2022       C  0.98330002  0.55386491  0.41089307    -0.12000
C2023       C  0.98182564  0.57893212  0.39989788     0.03400
C2024       C  0.98149374  0.59937584  0.42063974    -0.12600
C2025       C  0.98353673  0.59634788  0.45233825     0.18300
C2026       C  0.98491340  0.57156160  0.46351907    -0.09600
C2027       C  0.98461391  0.55051533  0.44287360    -0.02600
H2028       H  0.98013665  0.61825187  0.41189717     0.04800
C2029       C  0.98423998  0.61962174  0.47285299     0.20300
H2030       H  0.98594536  0.53174403  0.45192030     0.10000
C2031       C  0.96033674  0.61242171  0.49280138    -0.15900
C2032       C  0.95880489  0.63464796  0.00984644     0.03000
C2033       C  0.98139003  0.66464539  0.00690681    -0.11300
C2034       C  0.00536658  0.67177633  0.48720456    -0.01300
C2035       C  0.50703757  0.64959512  0.47040773    -0.06500
H2036       H  0.94236863  0.58960290  0.49435647     0.06000
H2037       H  0.52293928  0.69471737  0.48495494     0.09400
Br2038     Br  0.98877822  0.56634300  0.00657191    -0.06200
Br2039     Br  0.98101316  0.58805477  0.35713572    -0.03100
Br2040     Br  0.92415367  0.62323054  0.03455527    -0.00300
Br2041     Br  0.54113601  0.66147344  0.44468537    -0.04600
C2042       C  0.99042589  0.87330224  0.40592400    -0.12000
C2043       C  0.51440108  0.86775337  0.40972418     0.03400
C2044       C  0.01233473  0.84666325  0.43111269    -0.12600
C2045       C  0.98663953  0.83041151  0.44872497     0.18300
C2046       C  0.96290885  0.83607202  0.44552135    -0.09600
C2047       C  0.96494364  0.85739548  0.42438063    -0.02600
H2048       H  0.53047767  0.84203816  0.43318172     0.04800
C2049       C  0.98432823  0.80608133  0.46840270     0.20300
H2050       H  0.94623397  0.86109137  0.42195909     0.10000
C2051       C  0.99468265  0.81207129  0.49881654    -0.15900
C2052       C  0.99430546  0.78971407  0.01733066     0.03000
C2053       C  0.98341666  0.76059208  0.50523476    -0.11300
C2054       C  0.97306789  0.75493063  0.47464883    -0.01300
C2055       C  0.97342900  0.77724892  0.45637888    -0.06500
H2056       H  0.00351547  0.83439364  0.00803132     0.06000
H2057       H  0.96441689  0.73288495  0.46476851     0.09400
Br2058     Br  0.92692405  0.81432395  0.46869829    -0.06200
Br2059     Br  0.54939906  0.88547948  0.38452210    -0.03100
Br2060     Br  0.51068807  0.80133796  0.05799900    -0.00300
Br2061     Br  0.95903306  0.76740521  0.41490944    -0.04600
C2062       C  0.97317902  0.66074183  0.16708368    -0.12000
C2063       C  0.95659682  0.63065874  0.15744143     0.03400
C2064       C  0.95846276  0.60846556  0.17401421    -0.12600
C2065       C  0.97672720  0.61572587  0.20007468     0.18300
C2066       C  0.49377863  0.64573896  0.20926933    -0.09600
C2067       C  0.49160918  0.66784288  0.19307723    -0.02600
H2068       H  0.94521750  0.58539687  0.16688386     0.04800
C2069       C  0.97683909  0.59179427  0.21839774     0.20300
H2070       H  0.50492189  0.69082518  0.20048728     0.10000
C2071       C  0.49150919  0.57697199  0.20739204    -0.15900
C2072       C  0.49402104  0.55601083  0.22569221     0.03000
C2073       C  0.98173183  0.54980444  0.25553551    -0.11300
C2074       C  0.96647167  0.56428445  0.26595163    -0.01300
C2075       C  0.96358119  0.58468117  0.24759628    -0.06500
H2076       H  0.50177489  0.58238423  0.18490549     0.06000
H2077       H  0.95646119  0.55958665  0.28856061     0.09400
Br2078     Br  0.52101428  0.65765300  0.24330293    -0.06200
Br2079     Br  0.92966360  0.61816701  0.12315688    -0.03100
Br2080     Br  0.51641020  0.53858258  0.20970058    -0.00300
Br2081     Br  0.94111325  0.60212697  0.26344806    -0.04600
C2082       C  0.99265997  0.87392032  0.26716551    -0.12000
C2083       C  0.51522357  0.86617267  0.26481998     0.03400
C2084       C  0.51271808  0.84523387  0.24277026    -0.12600
C2085       C  0.98838864  0.83216687  0.22257803     0.18300
C2086       C  0.96703167  0.84130071  0.22349610    -0.09600
C2087       C  0.96918267  0.86181880  0.24572944    -0.02600
H2088       H  0.52931265  0.83831665  0.24205061     0.04800
C2089       C  0.98408554  0.80699197  0.20292096     0.20300
H2090       H  0.95224198  0.86822764  0.24634070     0.10000
C2091       C  0.96305159  0.77800549  0.21180547    -0.15900
C2092       C  0.95905896  0.75330810  0.19476922     0.03000
C2093       C  0.97658045  0.75743728  0.16842035    -0.11300
C2094       C  0.99695138  0.78660113  0.15899289    -0.01300
C2095       C  0.00083389  0.81129396  0.17608497    -0.06500
H2096       H  0.94971856  0.77461211  0.23216547     0.06000
H2097       H  0.51034957  0.79019319  0.13865356     0.09400
Br2098     Br  0.93455998  0.82622780  0.19483926    -0.06200
Br2099     Br  0.54882057  0.88136397  0.29214728    -0.03100
Br2100     Br  0.92813099  0.71475289  0.20762605    -0.00300
Br2101     Br  0.52885921  0.85045766  0.16188967    -0.04600
C2102       C  0.87705019  0.97468512  0.40009668    -0.12000
C2103       C  0.84769401  0.95056307  0.40399761     0.03400
C2104       C  0.82858983  0.95297632  0.42513969    -0.12600
C2105       C  0.83785521  0.97913984  0.44226233     0.18300
C2106       C  0.86702529  0.50296032  0.43879585    -0.09600
C2107       C  0.88633478  0.50057481  0.41803871    -0.02600
H2108       H  0.80601348  0.93468989  0.42752279     0.04800
C2109       C  0.81624682  0.98173685  0.46237217     0.20300
H2110       H  0.90863764  0.51934229  0.41562396     0.10000
C2111       C  0.81158530  0.97050609  0.49232708    -0.15900
C2112       C  0.79069760  0.97197616  0.01167493     0.03000
C2113       C  0.77385239  0.98494513  0.50093506    -0.11300
C2114       C  0.77886595  0.99623019  0.47075641    -0.01300
C2115       C  0.79976056  0.99470939  0.45161525    -0.06500
H2116       H  0.82408282  0.46025515  0.00058003     0.06000
H2117       H  0.76646404  0.00633923  0.46186249     0.09400
Br2118     Br  0.88115919  0.53951183  0.46130833    -0.06200
Br2119     Br  0.83100852  0.91472495  0.37962607    -0.03100
Br2120     Br  0.78553270  0.45413764  0.05151308    -0.00300
Br2121     Br  0.80481029  0.01021308  0.41067966    -0.04600
C2122       C  0.68059558  0.98875424  0.00620094    -0.12000
C2123       C  0.65113616  0.97335387  0.01773963     0.03400
C2124       C  0.62804799  0.97365326  0.50128261    -0.12600
C2125       C  0.63369425  0.98920679  0.47356397     0.18300
C2126       C  0.66316957  0.50581848  0.46292118    -0.09600
C2127       C  0.68621315  0.50516549  0.47896189    -0.02600
H2128       H  0.60539461  0.96076503  0.50955251     0.04800
C2129       C  0.60848750  0.98554677  0.45442288     0.20300
H2130       H  0.70868621  0.51765715  0.47012315     0.10000
C2131       C  0.59162254  0.49875227  0.46328545    -0.15900
C2132       C  0.56888715  0.49693565  0.44419670     0.03000
C2133       C  0.56307884  0.98187690  0.41562426    -0.11300
C2134       C  0.57945207  0.96792598  0.40753756    -0.01300
C2135       C  0.60157412  0.96924727  0.42678042    -0.06500
H2136       H  0.59667201  0.51112318  0.48469104     0.06000
H2137       H  0.57508666  0.95591468  0.38596360     0.09400
Br2138     Br  0.67288028  0.52955140  0.42639175    -0.06200
Br2139     Br  0.64021700  0.94948434  0.05431801    -0.03100
Br2140     Br  0.54821432  0.51718521  0.45737862    -0.00300
Br2141     Br  0.62173997  0.94825075  0.41437288    -0.04600
C2142       C  0.77483997  0.98433214  0.16659241    -0.12000
C2143       C  0.78214887  0.99541573  0.19709427     0.03400
C2144       C  0.80416899  0.99299121  0.21328986    -0.12600
C2145       C  0.81966622  0.98020712  0.19968351     0.18300
C2146       C  0.81341783  0.97022359  0.16907183    -0.09600
C2147       C  0.79114697  0.97225848  0.15279934    -0.02600
H2148       H  0.80936005  0.50125635  0.23671248     0.04800
C2149       C  0.84183543  0.97714398  0.21832295     0.20300
H2150       H  0.78632843  0.96396751  0.12938546     0.10000
C2151       C  0.83326542  0.95025735  0.23349285    -0.15900
C2152       C  0.85217804  0.94774953  0.25480604     0.03000
C2153       C  0.88028081  0.97291568  0.26169091    -0.11300
C2154       C  0.88929169  0.99923726  0.24481538    -0.01300
C2155       C  0.87044741  0.00145582  0.22332355    -0.06500
H2156       H  0.81127124  0.93133763  0.22942946     0.06000
H2157       H  0.91095455  0.51857839  0.24876514     0.09400
Br2158     Br  0.83513672  0.95411199  0.14869546    -0.06200
Br2159     Br  0.76465283  0.51587235  0.21770888    -0.03100
Br2160     Br  0.83701003  0.90970707  0.27440851    -0.00300
Br2161     Br  0.88439121  0.53826458  0.20168671    -0.04600
C2162       C  0.56433871  0.97967160  0.25711093    -0.12000
C2163       C  0.55574980  0.96330417  0.22923095     0.03400
C2164       C  0.57750364  0.96379360  0.20961547    -0.12600
C2165       C  0.60781336  0.98088729  0.21702891     0.18300
C2166       C  0.61638074  0.99828498  0.24399262    -0.09600
C2167       C  0.59477371  0.99706122  0.26405649    -0.02600
H2168       H  0.57076079  0.95041274  0.18883686     0.04800
C2169       C  0.63044000  0.97945270  0.19750257     0.20300
H2170       H  0.60185537  0.51017782  0.28500374     0.10000
C2171       C  0.64070562  0.99694172  0.17097754    -0.15900
C2172       C  0.66452127  0.99857664  0.15408934     0.03000
C2173       C  0.67856437  0.98249653  0.16388377    -0.11300
C2174       C  0.66762885  0.96446743  0.19010186    -0.01300
C2175       C  0.64365100  0.96264979  0.20665621    -0.06500
H2176       H  0.63075932  0.51008522  0.16395085     0.06000
H2177       H  0.67769463  0.95160099  0.19772281     0.09400
Br2178     Br  0.65747284  0.52440787  0.25404388    -0.06200
Br2179     Br  0.51482819  0.93853612  0.21754665    -0.03100
Br2180     Br  0.67806675  0.52504304  0.11949151    -0.00300
Br2181     Br  0.62963072  0.93701963  0.24181324    -0.04600
C2182       C  0.79775640  0.79186531  0.00828066    -0.12000
C2183       C  0.82785384  0.80034377  0.01364171     0.03400
C2184       C  0.85052243  0.82405349  0.49726242    -0.12600
C2185       C  0.84380993  0.83953697  0.47524292     0.18300
C2186       C  0.81385115  0.83142717  0.47016692    -0.09600
C2187       C  0.79113971  0.80776809  0.48657282    -0.02600
H2188       H  0.87341067  0.82957478  0.50071852     0.04800
C2189       C  0.86773202  0.86108625  0.45484164     0.20300
H2190       H  0.76820394  0.80162177  0.48218345     0.10000
C2191       C  0.86942750  0.85183907  0.42503529    -0.15900
C2192       C  0.89099736  0.87111422  0.40435566     0.03000
C2193       C  0.91156769  0.90086655  0.41326922    -0.11300
C2194       C  0.91039660  0.90976015  0.44365466    -0.01300
C2195       C  0.88881069  0.89010047  0.46440353    -0.06500
H2196       H  0.85372779  0.82928602  0.41779225     0.06000
H2197       H  0.92592435  0.93224605  0.45117273     0.09400
Br2198     Br  0.80301966  0.85179879  0.44059749    -0.06200
Br2199     Br  0.83922586  0.77829466  0.04034925    -0.03100
Br2200     Br  0.89103446  0.85426273  0.36485368    -0.00300
Br2201     Br  0.88838166  0.90395106  0.50523461    -0.04600
C2202       C  0.70238916  0.69679556  0.50339947    -0.12000
C2203       C  0.67467894  0.67539451  0.01623641     0.03400
C2204       C  0.65260180  0.65336591  0.49741180    -0.12600
C2205       C  0.65732277  0.65200684  0.46589534     0.18300
C2206       C  0.68459626  0.67313769  0.45301973    -0.09600
C2207       C  0.70670976  0.69518079  0.47160574    -0.02600
H2208       H  0.63147998  0.63730212  0.50737261     0.04800
C2209       C  0.63340465  0.62900909  0.44637203     0.20300
H2210       H  0.72758075  0.71094830  0.46100958     0.10000
C2211       C  0.61451029  0.63628338  0.43027134    -0.15900
C2212       C  0.59363839  0.61635997  0.40906958     0.03000
C2213       C  0.59130874  0.58818732  0.40364108    -0.11300
C2214       C  0.60985795  0.58078978  0.42071238    -0.01300
C2215       C  0.63059136  0.60080429  0.44193654    -0.06500
H2216       H  0.61669365  0.65805805  0.43352622     0.06000
H2217       H  0.60862481  0.55946358  0.41726533     0.09400
Br2218     Br  0.69264775  0.67247218  0.41004466    -0.06200
Br2219     Br  0.66428748  0.67517080  0.05870738    -0.03100
Br2220     Br  0.57113365  0.63064724  0.38697026    -0.00300
Br2221     Br  0.65537012  0.58915617  0.46363944    -0.04600
C2222       C  0.80172866  0.77929443  0.16856296    -0.12000
C2223       C  0.83181419  0.79243738  0.15962352     0.03400
C2224       C  0.85382775  0.81654093  0.17636155    -0.12600
C2225       C  0.84646964  0.82735257  0.20255129     0.18300
C2226       C  0.81658034  0.81366181  0.21209437    -0.09600
C2227       C  0.79450937  0.78991810  0.19508561    -0.02600
H2228       H  0.87685606  0.82636029  0.16942832     0.04800
C2229       C  0.87041911  0.85161302  0.22079921     0.20300
H2230       H  0.77156602  0.77993441  0.20243394     0.10000
C2231       C  0.88307664  0.88131653  0.21104465    -0.15900
C2232       C  0.90488886  0.90471883  0.22886988     0.03000
C2233       C  0.91409956  0.89836358  0.25701203    -0.11300
C2234       C  0.90149461  0.86852623  0.26633972    -0.01300
C2235       C  0.88029074  0.84530342  0.24833965    -0.06500
H2236       H  0.87550015  0.88632696  0.18985355     0.06000
H2237       H  0.90825628  0.86314097  0.28783256     0.09400
Br2238     Br  0.80491663  0.82658485  0.24827070    -0.06200
Br2239     Br  0.84442999  0.77654602  0.12674291    -0.03100
Br2240     Br  0.91939641  0.94475239  0.21494933    -0.00300
Br2241     Br  0.86551189  0.80523761  0.26228477    -0.04600
C2242       C  0.59181299  0.58492827  0.26527127    -0.12000
C2243       C  0.60093762  0.61561800  0.26372849     0.03400
C2244       C  0.62150194  0.63359205  0.24138565    -0.12600
C2245       C  0.63359465  0.62172483  0.22059987     0.18300
C2246       C  0.62417752  0.59114452  0.22167703    -0.09600
C2247       C  0.60338811  0.57304025  0.24371913    -0.02600
H2248       H  0.62908871  0.65724653  0.24106015     0.04800
C2249       C  0.65825710  0.64217194  0.20030578     0.20300
H2250       H  0.59655436  0.54959809  0.24426885     0.10000
C2251       C  0.68748670  0.65051437  0.20876864    -0.15900
C2252       C  0.71171141  0.67141317  0.19161227     0.03000
C2253       C  0.70690705  0.68472570  0.16555872    -0.11300
C2254       C  0.67750587  0.67523137  0.15627879    -0.01300
C2255       C  0.65328233  0.65421024  0.17348568    -0.06500
H2256       H  0.69146426  0.64089153  0.22904380     0.06000
H2257       H  0.67333590  0.68491753  0.13619243     0.09400
Br2258     Br  0.63968861  0.57339540  0.19386824    -0.06200
Br2259     Br  0.58883644  0.63513632  0.29332210    -0.03100
Br2260     Br  0.75064029  0.67970684  0.20417601    -0.00300
Br2261     Br  0.61384300  0.64265462  0.15968546    -0.04600
C2262       C  0.73189017  0.70961294  0.64902933     0.80200
N2263       N  0.73098506  0.71201948  0.61793929    -0.78100
C2264       C  0.75333855  0.73566361  0.60307045     0.82600
N2265       N  0.77649420  0.75706945  0.61950058    -0.78100
C2266       C  0.77749921  0.75501060  0.65055612     0.82700
N2267       N  0.75497350  0.73144063  0.66517783    -0.79800
C2268       C  0.72727637  0.72057761  0.52196737     0.80200
N2269       N  0.72896169  0.71763137  0.55284725    -0.78100
C2270       C  0.75212186  0.73873293  0.56950813     0.82600
N2271       N  0.77415833  0.76284580  0.55502906    -0.78100
C2272       C  0.77310514  0.76604044  0.52414435     0.82700
N2273       N  0.74953490  0.74497599  0.50780083    -0.79800
C2274       C  0.75054502  0.98488224  0.64883295     0.80200
N2275       N  0.72665702  0.98337803  0.66356195    -0.78100
C2276       C  0.70446242  0.98405295  0.64757095     0.82600
N2277       N  0.70593563  0.98540869  0.61650314    -0.78100
C2278       C  0.72932388  0.98646143  0.60135649     0.82700
N2279       N  0.75160805  0.98613972  0.61753549    -0.79800
C2280       C  0.75043721  0.98632312  0.51967713     0.80200
N2281       N  0.75137233  0.98653851  0.55098863    -0.78100
C2282       C  0.72962876  0.98744385  0.56762029     0.82600
N2283       N  0.70704180  0.98830969  0.55289757    -0.78100
C2284       C  0.70567890  0.98810660  0.52184435     0.82700
N2285       N  0.72757316  0.98735467  0.50531417    -0.79800
C2286       C  0.97465921  0.73194013  0.65098724     0.80200
N2287       N  0.97592516  0.73266222  0.61976769    -0.78100
C2288       C  0.97523024  0.70971966  0.60377561     0.82600
N2289       N  0.97366822  0.68618146  0.61914453    -0.78100
C2290       C  0.97258269  0.68528690  0.65031471     0.82700
N2291       N  0.97339793  0.70839711  0.66611340    -0.79800
C2292       C  0.98242715  0.73561690  0.52315739     0.80200
N2293       N  0.98297938  0.71281446  0.50805141    -0.78100
C2294       C  0.98035864  0.68893586  0.52361709     0.82600
N2295       N  0.97764155  0.68801149  0.55464055    -0.78100
C2296       C  0.97731941  0.71069129  0.57009117     0.82700
N2297       N  0.97949372  0.73432640  0.55428100    -0.79800
O2298       O  0.51484800  0.91469597  0.87192655    -0.88200
C2299       C  0.57210765  0.56537863  0.79007225     1.11800
O2300       O  0.98847064  0.94743571  0.83571060    -1.36000
O2301       O  0.57709861  0.54713521  0.86960251    -0.89700
O2302       O  0.96527630  0.88780868  0.87050374    -0.90400
O2303       O  0.95559144  0.94682796  0.89964181    -0.79200
O2304       O  0.54648108  0.98086014  0.86543552    -1.01300
C2305       C  0.98400890  0.53159423  0.88966861     1.21800
O2306       O  0.95526061  0.97632136  0.83404040    -1.36200
Mn2307     Mn  0.98731501  0.97724762  0.80153592     1.82100
O2308       O  0.98467418  0.50903660  0.89901179    -0.78300
O2309       O  0.55022597  0.56992378  0.86874960    -0.87700
C2310       C  0.98499016  0.52966858  0.77731617     1.12900
C2311       C  0.57151696  0.56706538  0.87935736     1.07700
O2312       O  0.95729767  0.94529620  0.76990084    -0.79200
O2313       O  0.51741677  0.50935664  0.83490589    -1.32900
O2314       O  0.93062574  0.91785248  0.80602398    -0.98400
C2315       C  0.89775805  0.97459593  0.87646031     1.06400
Mn2316     Mn  0.51812391  0.55064275  0.83390822     1.48600
O2317       O  0.89453042  0.94989367  0.86694747    -0.87600
Mn2318     Mn  0.94992218  0.90450669  0.83555326     1.49600
O2319       O  0.51627309  0.91383766  0.80305173    -0.91500
C2320       C  0.54150859  0.98120296  0.89283403     1.19600
C2321       C  0.99194214  0.89311915  0.79218472     1.11600
Mn2322     Mn  0.98648617  0.97820011  0.86828776     1.81000
O2323       O  0.98486604  0.53413103  0.80476261    -0.96700
Mn2324     Mn  0.52925971  0.94681455  0.83695909     1.49300
C2325       C  0.99026672  0.89334829  0.88148904     1.08100
Mn2326     Mn  0.95115836  0.51500237  0.83286042     1.49900
C2327       C  0.89972941  0.97342946  0.78726958     1.11000
O2328       O  0.92954287  0.91830754  0.86357875    -1.00800
O2329       O  0.55111813  0.56921962  0.79986830    -0.92100
C2330       C  0.93328578  0.92288946  0.89112759     1.22300
O2331       O  0.98418336  0.53484689  0.86203973    -1.02900
O2332       O  0.57732278  0.54558441  0.80079865    -0.90300
O2333       O  0.91915452  0.49868825  0.79785090    -0.89900
O2334       O  0.96662764  0.88787955  0.80182338    -0.89900
Mn2335     Mn  0.56044218  0.51361204  0.83576030     1.47900
O2336       O  0.98638820  0.50715913  0.76914639    -0.78400
C2337       C  0.93491379  0.92171159  0.77850328     1.15400
O2338       O  0.51773889  0.98024156  0.90046483    -0.77100
O2339       O  0.51891129  0.97783765  0.77121736    -0.76700
Mn2340     Mn  0.91408855  0.93569682  0.83372619     1.51100
O2341       O  0.91790466  0.49961402  0.86633426    -0.89100
O2342       O  0.54749962  0.97974019  0.80724162    -0.96600
O2343       O  0.89605271  0.94904886  0.79810175    -0.91600
C2344       C  0.54251406  0.97888715  0.77964179     1.13200
C2345       C  0.98330151  0.55386554  0.91089257    -0.12000
C2346       C  0.98182800  0.57893318  0.89989723     0.03400
C2347       C  0.98149613  0.59937691  0.92063899    -0.12600
C2348       C  0.98353858  0.59634867  0.95233752     0.18300
C2349       C  0.98491438  0.57156197  0.96351847    -0.09600
C2350       C  0.98461469  0.55051557  0.94287311    -0.02600
H2351       H  0.98013953  0.61825317  0.91189633     0.04800
C2352       C  0.98424190  0.61962254  0.97285217     0.20300
H2353       H  0.98594541  0.53174396  0.95191984     0.10000
C2354       C  0.96033922  0.61242214  0.99280145    -0.15900
C2355       C  0.95880245  0.63464774  0.50984613     0.03000
C2356       C  0.98138835  0.66464499  0.50690740    -0.11300
C2357       C  0.00536771  0.67177719  0.98720299    -0.01300
C2358       C  0.50703765  0.64959653  0.97040341    -0.06500
H2359       H  0.94237157  0.58960317  0.99435715     0.06000
H2360       H  0.52293834  0.69471902  0.98494900     0.09400
Br2361     Br  0.98877819  0.56634319  0.50657242    -0.06200
Br2362     Br  0.98101680  0.58805654  0.85713505    -0.03100
Br2363     Br  0.92415035  0.62323107  0.53455323    -0.00300
Br2364     Br  0.54113371  0.66147558  0.94467705    -0.04600
C2365       C  0.99041686  0.87329614  0.90592149    -0.12000
C2366       C  0.51439682  0.86775472  0.90972903     0.03400
C2367       C  0.01232907  0.84666330  0.93111679    -0.12600
C2368       C  0.98663045  0.83040507  0.94872228     0.18300
C2369       C  0.96289546  0.83605800  0.94551098    -0.09600
C2370       C  0.96493059  0.85738223  0.92437110    -0.02600
H2371       H  0.53047678  0.84204525  0.93319243     0.04800
C2372       C  0.98432092  0.80607618  0.96840084     0.20300
H2373       H  0.94621794  0.86107286  0.92194446     0.10000
C2374       C  0.99468068  0.81206880  0.99881281    -0.15900
C2375       C  0.99430559  0.78971533  0.51733384     0.03000
C2376       C  0.98341356  0.76058967  0.00523384    -0.11300
C2377       C  0.97305972  0.75492556  0.97464976    -0.01300
C2378       C  0.97341867  0.77724250  0.95637934    -0.06500
H2379       H  0.00351496  0.83439512  0.50803695     0.06000
H2380       H  0.96440657  0.73287890  0.96477132     0.09400
Br2381     Br  0.92690479  0.81429862  0.96867632    -0.06200
Br2382     Br  0.54939921  0.88548671  0.88453362    -0.03100
Br2383     Br  0.51067954  0.80133585  0.55800430    -0.00300
Br2384     Br  0.95901708  0.76739550  0.91491203    -0.04600
C2385       C  0.97318053  0.66074568  0.66708676    -0.12000
C2386       C  0.95660191  0.63066279  0.65744296     0.03400
C2387       C  0.95846795  0.60847033  0.67401692    -0.12600
C2388       C  0.97672842  0.61573080  0.70008054     0.18300
C2389       C  0.49377652  0.64574553  0.70927817    -0.09600
C2390       C  0.49160626  0.66784837  0.69308463    -0.02600
H2391       H  0.94522556  0.58540169  0.66688491     0.04800
C2392       C  0.97684110  0.59179916  0.71840294     0.20300
H2393       H  0.50491497  0.69083044  0.70049663     0.10000
C2394       C  0.49151401  0.57697955  0.70739609    -0.15900
C2395       C  0.49402431  0.55601618  0.72569407     0.03000
C2396       C  0.98173182  0.54980577  0.75553675    -0.11300
C2397       C  0.96647302  0.56428650  0.76595498    -0.01300
C2398       C  0.96358335  0.58468483  0.74760153    -0.06500
H2399       H  0.50178037  0.58239335  0.68490994     0.06000
H2400       H  0.95646287  0.55958795  0.78856407     0.09400
Br2401     Br  0.52100624  0.65766124  0.74331723    -0.06200
Br2402     Br  0.92967291  0.61816982  0.62315471    -0.03100
Br2403     Br  0.51641220  0.53858745  0.70970019    -0.00300
Br2404     Br  0.94111527  0.60212965  0.76345549    -0.04600
C2405       C  0.99265626  0.87392099  0.76716325    -0.12000
C2406       C  0.51522048  0.86617467  0.76481621     0.03400
C2407       C  0.51271553  0.84523765  0.74276458    -0.12600
C2408       C  0.98838694  0.83217067  0.72257334     0.18300
C2409       C  0.96702861  0.84130257  0.72349310    -0.09600
C2410       C  0.96917882  0.86181943  0.74572742    -0.02600
H2411       H  0.52931058  0.83832098  0.74204344     0.04800
C2412       C  0.98408359  0.80699539  0.70291716     0.20300
H2413       H  0.95223697  0.86822683  0.74634000     0.10000
C2414       C  0.96305471  0.77800896  0.71180675    -0.15900
C2415       C  0.95906208  0.75331104  0.69477173     0.03000
C2416       C  0.97657884  0.75743972  0.66841895    -0.11300
C2417       C  0.99694442  0.78660353  0.65898648    -0.01300
C2418       C  0.00082664  0.81129690  0.67607727    -0.06500
H2419       H  0.94972557  0.77461606  0.73216984     0.06000
H2420       H  0.51033668  0.79019490  0.63864372     0.09400
Br2421     Br  0.93455517  0.82622712  0.69483843    -0.06200
Br2422     Br  0.54881712  0.88136415  0.79214397    -0.03100
Br2423     Br  0.92814024  0.71475579  0.70763633    -0.00300
Br2424     Br  0.52884228  0.85046021  0.66187442    -0.04600
C2425       C  0.87705079  0.97468868  0.90009616    -0.12000
C2426       C  0.84769702  0.95056357  0.90400229     0.03400
C2427       C  0.82859253  0.95297639  0.92514427    -0.12600
C2428       C  0.83785507  0.97914222  0.94226185     0.18300
C2429       C  0.86702566  0.50296005  0.93879729    -0.09600
C2430       C  0.88633539  0.50057465  0.91804026    -0.02600
H2431       H  0.80601803  0.93468750  0.92753134     0.04800
C2432       C  0.81624598  0.98173782  0.96237190     0.20300
H2433       H  0.90863887  0.51934149  0.91562696     0.10000
C2434       C  0.81158395  0.97050552  0.99232621    -0.15900
C2435       C  0.79069933  0.97197781  0.51167548     0.03000
C2436       C  0.77385072  0.98494380  0.00093539    -0.11300
C2437       C  0.77886434  0.99622990  0.97075721    -0.01300
C2438       C  0.79975930  0.99471019  0.95161570    -0.06500
H2439       H  0.82408169  0.46025397  0.50058012     0.06000
H2440       H  0.76646220  0.00633896  0.96186391     0.09400
Br2441     Br  0.88116041  0.53951015  0.96131256    -0.06200
Br2442     Br  0.83101473  0.91472048  0.87963886    -0.03100
Br2443     Br  0.78553072  0.45413690  0.55151218    -0.00300
Br2444     Br  0.80480825  0.01021449  0.91068045    -0.04600
C2445       C  0.68059745  0.98875665  0.50619942    -0.12000
C2446       C  0.65113791  0.97335578  0.51773778     0.03400
C2447       C  0.62804606  0.97365049  0.00128387    -0.12600
C2448       C  0.63369219  0.98920318  0.97356466     0.18300
C2449       C  0.66316963  0.50581760  0.96292198    -0.09600
C2450       C  0.68621218  0.50516290  0.97896289    -0.02600
H2451       H  0.60539275  0.96076260  0.00955401     0.04800
C2452       C  0.60848548  0.98554327  0.95442352     0.20300
H2453       H  0.70868540  0.51765364  0.97012444     0.10000
C2454       C  0.59162282  0.49875296  0.96328458    -0.15900
C2455       C  0.56888760  0.49693631  0.94419555     0.03000
C2456       C  0.56307736  0.98187465  0.91562474    -0.11300
C2457       C  0.57945102  0.96792432  0.90753736    -0.01300
C2458       C  0.60157290  0.96924509  0.92678023    -0.06500
H2459       H  0.59667190  0.51112367  0.98469033     0.06000
H2460       H  0.57508624  0.95591415  0.88596289     0.09400
Br2461     Br  0.67288224  0.52955146  0.92639309    -0.06200
Br2462     Br  0.64021816  0.94948369  0.55431435    -0.03100
Br2463     Br  0.54821476  0.51718602  0.95737695    -0.00300
Br2464     Br  0.62174008  0.94825023  0.91437128    -0.04600
C2465       C  0.77483850  0.98433042  0.66659156    -0.12000
C2466       C  0.78214621  0.99541278  0.69709394     0.03400
C2467       C  0.80416753  0.99299000  0.71328906    -0.12600
C2468       C  0.81966700  0.98020871  0.69968188     0.18300
C2469       C  0.81341939  0.97022594  0.66906993    -0.09600
C2470       C  0.79114749  0.97225927  0.65279775    -0.02600
H2471       H  0.80935414  0.50124791  0.73671489     0.04800
C2472       C  0.84183731  0.97714713  0.71832096     0.20300
H2473       H  0.78632983  0.96396921  0.62938364     0.10000
C2474       C  0.83327008  0.95025923  0.73348682    -0.15900
C2475       C  0.85218287  0.94775200  0.75480016     0.03000
C2476       C  0.88028315  0.97292001  0.76168924    -0.11300
C2477       C  0.88929158  0.99924319  0.74481746    -0.01300
C2478       C  0.87044707  0.00146125  0.72332558    -0.06500
H2479       H  0.81127758  0.93133774  0.72942023     0.06000
H2480       H  0.91095385  0.51857920  0.74876606     0.09400
Br2481     Br  0.83514090  0.95411766  0.64869270    -0.06200
Br2482     Br  0.76464287  0.51585872  0.71771425    -0.03100
Br2483     Br  0.83701816  0.90970715  0.77439653    -0.00300
Br2484     Br  0.88439008  0.53826448  0.70168727    -0.04600
C2485       C  0.56433786  0.97967015  0.75711126    -0.12000
C2486       C  0.55574854  0.96330330  0.72923090     0.03400
C2487       C  0.57750197  0.96379217  0.70961510    -0.12600
C2488       C  0.60781180  0.98088487  0.71702853     0.18300
C2489       C  0.61637967  0.99828227  0.74399248    -0.09600
C2490       C  0.59477301  0.99705901  0.76405673    -0.02600
H2491       H  0.57075872  0.95041177  0.68883632     0.04800
C2492       C  0.63043796  0.97944974  0.69750170     0.20300
H2493       H  0.60185557  0.51017478  0.78500238     0.10000
C2494       C  0.64070365  0.99693879  0.67097668    -0.15900
C2495       C  0.66451883  0.99857309  0.65408801     0.03000
C2496       C  0.67856166  0.98249261  0.66388212    -0.11300
C2497       C  0.66762589  0.96446328  0.69010005    -0.01300
C2498       C  0.64364826  0.96264598  0.70665465    -0.06500
H2499       H  0.63075825  0.51008383  0.66394797     0.06000
H2500       H  0.67769130  0.95159639  0.69772068     0.09400
Br2501     Br  0.65747219  0.52440476  0.75404037    -0.06200
Br2502     Br  0.51482681  0.93853696  0.71754610    -0.03100
Br2503     Br  0.67806517  0.52504080  0.61948864    -0.00300
Br2504     Br  0.62962705  0.93701481  0.74181087    -0.04600
C2505       C  0.79775669  0.79186134  0.50827730    -0.12000
C2506       C  0.82785571  0.80035250  0.51365110     0.03400
C2507       C  0.85052136  0.82404467  0.99725373    -0.12600
C2508       C  0.84381084  0.83954122  0.97524809     0.18300
C2509       C  0.81385350  0.83144514  0.97018673    -0.09600
C2510       C  0.79114127  0.80778527  0.98659121    -0.02600
H2511       H  0.87340781  0.82955563  0.00069893     0.04800
C2512       C  0.86773103  0.86108918  0.95484382     0.20300
H2513       H  0.76820658  0.80164895  0.98221281     0.10000
C2514       C  0.86940275  0.85185080  0.92502612    -0.15900
C2515       C  0.89097180  0.87112402  0.90434472     0.03000
C2516       C  0.91156407  0.90086712  0.91326726    -0.11300
C2517       C  0.91041626  0.90975094  0.94366313    -0.01300
C2518       C  0.88883292  0.89009192  0.96441440    -0.06500
H2519       H  0.85368595  0.82930534  0.91777608     0.06000
H2520       H  0.92596225  0.93222877  0.95118913     0.09400
Br2521     Br  0.80302466  0.85183781  0.94064064    -0.06200
Br2522     Br  0.83923369  0.77832100  0.54037737    -0.03100
Br2523     Br  0.89097693  0.85428094  0.86482772    -0.00300
Br2524     Br  0.88844132  0.90392804  0.00526204    -0.04600
C2525       C  0.70239330  0.69679531  0.00339831    -0.12000
C2526       C  0.67467414  0.67539699  0.51623823     0.03400
C2527       C  0.65260776  0.65336314  0.99740929    -0.12600
C2528       C  0.65732918  0.65200572  0.96589268     0.18300
C2529       C  0.68460246  0.67313807  0.95301782    -0.09600
C2530       C  0.70671486  0.69518165  0.97160457    -0.02600
H2531       H  0.63148622  0.63729806  0.00736961     0.04800
C2532       C  0.63341099  0.62900888  0.94636852     0.20300
H2533       H  0.72758558  0.71095057  0.96100901     0.10000
C2534       C  0.61451754  0.63628444  0.93026783    -0.15900
C2535       C  0.59364394  0.61636105  0.90906724     0.03000
C2536       C  0.59131207  0.58818736  0.90363935    -0.11300
C2537       C  0.60986054  0.58078869  0.92071050    -0.01300
C2538       C  0.63059515  0.60080289  0.94193402    -0.06500
H2539       H  0.61670241  0.65805980  0.93352236     0.06000
H2540       H  0.60862558  0.55946157  0.91726407     0.09400
Br2541     Br  0.69265502  0.67247411  0.91004282    -0.06200
Br2542     Br  0.66428372  0.67517597  0.55870915    -0.03100
Br2543     Br  0.57113925  0.63064916  0.88696928    -0.00300
Br2544     Br  0.65537137  0.58915226  0.96363801    -0.04600
C2545       C  0.80172749  0.77929414  0.66856290    -0.12000
C2546       C  0.83181376  0.79242983  0.65962871     0.03400
C2547       C  0.85382830  0.81653301  0.67636643    -0.12600
C2548       C  0.84647006  0.82735105  0.70255117     0.18300
C2549       C  0.81657970  0.81366701  0.71208942    -0.09600
C2550       C  0.79450797  0.78992396  0.69508065    -0.02600
H2551       H  0.87685699  0.82634722  0.66943680     0.04800
C2552       C  0.87041969  0.85161191  0.72079875     0.20300
H2553       H  0.77156382  0.77994545  0.70242510     0.10000
C2554       C  0.88307998  0.88131477  0.71104118    -0.15900
C2555       C  0.90489114  0.90471792  0.72886651     0.03000
C2556       C  0.91409873  0.89836425  0.75701145    -0.11300
C2557       C  0.90149097  0.86852741  0.76634222    -0.01300
C2558       C  0.88028739  0.84530375  0.74834267    -0.06500
H2559       H  0.87550596  0.88632419  0.68984777     0.06000
H2560       H  0.90824993  0.86314318  0.78783736     0.09400
Br2561     Br  0.80491546  0.82659850  0.74825908    -0.06200
Br2562     Br  0.84442800  0.77652826  0.62675661    -0.03100
Br2563     Br  0.91940052  0.94475073  0.71494260    -0.00300
Br2564     Br  0.86550251  0.80523890  0.76229405    -0.04600
C2565       C  0.59181330  0.58492712  0.76527048    -0.12000
C2566       C  0.60093870  0.61561701  0.76372862     0.03400
C2567       C  0.62150250  0.63359094  0.74138553    -0.12600
C2568       C  0.63359400  0.62172343  0.72059867     0.18300
C2569       C  0.62417632  0.59114296  0.72167507    -0.09600
C2570       C  0.60338730  0.57303875  0.74371746    -0.02600
H2571       H  0.62908983  0.65724553  0.74106062     0.04800
C2572       C  0.65825565  0.64217066  0.70030409     0.20300
H2573       H  0.59655293  0.54959641  0.74426668     0.10000
C2574       C  0.68748540  0.65051181  0.70876492    -0.15900
C2575       C  0.71170960  0.67141232  0.69160931     0.03000
C2576       C  0.70690452  0.68472732  0.66555838    -0.11300
C2577       C  0.67750316  0.67523448  0.65628041    -0.01300
C2578       C  0.65328011  0.65421206  0.67348685    -0.06500
H2579       H  0.69146349  0.64088712  0.72903820     0.06000
H2580       H  0.67333277  0.68492282  0.63619604     0.09400
Br2581     Br  0.63968572  0.57339341  0.69386471    -0.06200
Br2582     Br  0.58883938  0.63513561  0.79332380    -0.03100
Br2583     Br  0.75063895  0.67970556  0.70417061    -0.00300
Br2584     Br  0.61384031  0.64265913  0.65969040    -0.04600
loop_ 
_geom_bond_atom_site_label_1 
_geom_bond_atom_site_label_2 
_geom_bond_distance 
_geom_bond_site_symmetry_2 
_ccdc_geom_bond_type 
C1            N2   1.361       .  A
C1            N6   1.359       .  A
C1          C315   1.483       .  S
N2            C3   1.361       .  A
C3            N4   1.359       .  A
C3            C9   1.473       .  S
N4            C5   1.358       .  A
C5            N6   1.358       .  A
C5          C284   1.480       .  S
C7            N8   1.360       .  A
C7           N12   1.364       .  A
C7          C587   1.497       .  S
N8            C9   1.359       .  A
C9           N10   1.359       .  A
N10          C11   1.358       .  A
C11          N12   1.361       .  A
C11         C244   1.484       .  S
C13          N14   1.362       .  A
C13          N18   1.363       .  A
C13         C204   1.489       .  S
N14          C15   1.359       .  A
C15          N16   1.353       .  A
C15         C235   1.485       .  S
N16          C17   1.357       .  A
C17          N18   1.359       .  A
C17          C21   1.468       .  S
C19          N20   1.362       .  A
C19          N24   1.364       .  A
C19         C498   1.493       .  S
N20          C21   1.360       .  A
C21          N22   1.354       .  A
N22          C23   1.352       .  A
C23          N24   1.360       .  A
C23         C184   1.482       .  S
C25          N26   1.359       .  A
C25          N30   1.360       .  A
C25         C155   1.479       .  S
N26          C27   1.358       .  A
C27          N28   1.358       .  A
C27          C35   1.468       .  S
N28          C29   1.357       .  A
C29          N30   1.359       .  A
C29         C124   1.481       .  S
C31          N32   1.361       .  A
C31          N36   1.360       .  A
C31         C438   1.491       .  S
N32          C33   1.358       .  A
C33          N34   1.355       .  A
C33          C95   1.473       .  S
N34          C35   1.357       .  A
C35          N36   1.360       .  A
O37         Mn63   2.102       .  S
O37        C1356   1.272   1_455  A
C38         C304   1.487       .  S
C38          O71   1.273       .  A
C38          O68   1.273       .  A
O39         Mn46   2.169       .  S
O39         Mn57   2.123       .  S
O39         Mn61   2.167       .  S
O39       Mn1355   2.131       .  S
O40         Mn74   2.100       .  S
O40          C50   1.273       .  A
O41         Mn57   2.094       .  S
O41          C64   1.272       .  A
O42         Mn61   2.119       .  S
O42          C69   1.256       .  A
O43         Mn63   1.962       .  S
O43        Mn720   1.964       .  S
O43          C59   1.221       .  S
C44          C84   1.488       .  S
C44          O47   1.254       .  A
C44          O70   1.213       .  S
O45         Mn46   2.164       .  S
O45         Mn79   2.123       .  S
O45         Mn61   2.165       .  S
O45        Mn711   2.116       .  S
Mn46         O51   2.113       .  S
Mn46        O721   2.115       .  S
Mn46       O1370   2.091       .  S
Mn46       O1990   2.168       .  S
O47        Mn707   2.115   1_545  S
O48         Mn55   2.096       .  S
O48          C50   1.271       .  A
C49         C135   1.481       .  S
C49          O75   1.253       .  A
C49          O62   1.215       .  S
C50         C275   1.495       .  S
O51          C76   1.253       .  A
O52         Mn55   2.119       .  S
O52         Mn74   2.129       .  S
O52       Mn1984   2.168   1_445  S
O52       Mn1999   2.173   1_445  S
O53         Mn57   1.955       .  S
O53         Mn79   1.954       .  S
O53          C76   1.216       .  S
C54         C164   1.488       .  S
C54          O56   1.271       .  A
C54         O726   1.272       .  A
Mn55         O68   2.101       .  S
Mn55       O1362   1.959   1_455  S
Mn55       O1354   1.957   1_455  S
O56         Mn79   2.095       .  S
Mn57         O73   2.092       .  S
Mn57         O67   1.964       .  S
O58         Mn63   2.092       .  S
O58        C1352   1.270   1_455  A
C59         C195   1.481       .  S
C59          O77   1.253       .  A
C60         C144   1.483       .  S
C60          O73   1.272       .  A
C60        O1350   1.270       .  A
Mn61        O693   2.115       .  S
Mn61       O1369   2.102       .  S
Mn61       O1990   2.173       .  S
O62         Mn65   1.953       .  S
O62       Mn1347   1.957       .  S
Mn63       O1331   2.131   1_455  S
Mn63         O81   1.970       .  S
C64         C104   1.491       .  S
C64        O1329   1.272       .  A
Mn65         O72   2.092   1_545  S
Mn65         O80   2.090   1_545  S
Mn65        O691   2.116   1_545  S
Mn65         O70   1.958       .  S
C66         C215   1.492       .  S
C66          O82   1.271       .  A
C66         O718   1.272       .  A
O67         Mn79   1.965       .  S
O67          C69   1.217       .  S
C69         C255   1.492       .  S
O70       Mn1347   1.959       .  S
O71         Mn74   2.096       .  S
O72         C712   1.272       .  A
Mn74        O689   1.964   1_545  S
Mn74        O727   1.968   1_545  S
O75        Mn692   2.115   1_545  S
C76         C295   1.480       .  S
O77       Mn1353   2.102   1_455  S
O78       Mn1338   2.091   1_455  S
O78          C83   1.252       .  A
Mn79         O82   2.098       .  S
O80         C700   1.272       .  A
O81        Mn720   1.968       .  S
O81          C83   1.224       .  S
C83         C224   1.482       .  S
C84          C85   1.422       .  A
C84          C89   1.408       .  A
C85          C86   1.394       .  A
C85        Br101   1.926       .  S
C86          C87   1.398       .  A
C86          H90   1.084       .  S
C87          C91   1.482       .  S
C87          C88   1.408       .  A
C88          C89   1.403       .  A
C88        Br423   1.917       .  S
C89          H92   1.083       .  S
C91          C93   1.404       .  A
C91        C1389   1.411       .  A
C93         C417   1.401       .  A
C93          H98   1.083       .  S
C94          C95   1.410       .  A
C94         C416   1.401   1_554  A
C94        Br102   1.918       .  S
C95         C419   1.401   1_554  A
C96         C418   1.401       .  A
C96        C1389   1.397       .  A
C96        H1391   1.083       .  S
C97        C1383   1.411   1_455  A
C97        C1388   1.397       .  A
C97        Br103   1.918       .  S
H99        C1388   1.083       .  S
Br100       C411   1.917   1_554  S
C104        C109   1.411       .  A
C104       C1397   1.418       .  A
C105       C1396   1.418   1_455  A
C105       C1398   1.400       .  A
C105       Br121   1.920       .  S
C106        C107   1.399       .  A
C106       C1397   1.400       .  A
C106       H1402   1.083       .  S
C107        C111   1.480       .  S
C107        C108   1.406       .  A
C108        C109   1.402       .  A
C108       Br120   1.919       .  S
C109        H112   1.083       .  S
H110       C1398   1.083       .  S
C111        C113   1.401       .  A
C111        C117   1.405       .  A
C113        C437   1.404       .  A
C113        H441   1.084       .  S
C114        C436   1.404   1_554  A
C114        C438   1.419       .  A
C114      Br1414   1.922       .  S
C115        C354   1.491       .  S
C115        C116   1.408       .  A
C115        C437   1.419       .  A
C116        C117   1.397       .  A
C116        H119   1.083       .  S
C117       Br123   1.919       .  S
H118        C436   1.084   1_554  S
Br122      C1406   1.922   1_455  S
C124        C125   1.414       .  A
C124       C1421   1.404       .  A
C125        C126   1.402       .  A
C125       Br141   1.919       .  S
C126        C127   1.401       .  A
C126        H130   1.083       .  S
C127        C131   1.478       .  S
C127       C1420   1.408       .  A
C128        C129   1.397       .  A
C128       C1419   1.408       .  A
C128       Br140   1.920   1_655  S
C129       C1416   1.404       .  A
C129        H132   1.084   1_655  S
C131        C137   1.404       .  A
C131       C1425   1.405       .  A
C133        C134   1.405       .  A
C133       C1423   1.405       .  A
C133        H138   1.083   1_655  S
C134       C1427   1.412       .  A
C134       Br142   1.919   1_655  S
C135        C136   1.407       .  A
C135       C1426   1.412       .  A
C136        C137   1.392       .  A
C136        H139   1.082       .  S
C137       Br143   1.921       .  S
C144        C149   1.406       .  A
C144       C1437   1.416       .  A
C145        C146   1.401       .  A
C145       C1436   1.416   1_455  A
C145       Br161   1.921       .  S
C146       C1439   1.401   1_455  A
C146        H150   1.084       .  S
C147        C151   1.476       .  S
C147        C148   1.404       .  A
C147       C1438   1.401       .  A
C148        C149   1.396       .  A
C148       Br160   1.918       .  S
C149        H152   1.082       .  S
C151        C153   1.402       .  A
C151        C157   1.405       .  A
C153        C154   1.398       .  A
C153        H158   1.083       .  S
C154        C155   1.412       .  A
C154       Br162   1.920       .  S
C155        C156   1.407       .  A
C156        C157   1.401       .  A
C156       H1451   1.083       .  S
C157      Br1455   1.918       .  S
H159       C1448   1.083   1_455  S
Br163      C1449   1.918       .  S
C164        C165   1.419       .  A
C164        C815   1.409       .  A
C165        C166   1.402       .  A
C165       Br181   1.923       .  S
C166        C167   1.401       .  A
C166        H170   1.083       .  S
C167        C171   1.479       .  S
C167        C814   1.405       .  A
C168        C169   1.398       .  A
C168        C813   1.405   1_545  A
C168       Br180   1.918       .  S
C169        C810   1.409   1_545  A
C169        H172   1.083       .  S
C171        C173   1.400       .  A
C171        C177   1.405       .  A
C173        C497   1.403       .  A
C173       H1147   1.083       .  S
C174        C496   1.403   1_554  A
C174        C498   1.420       .  A
C174       Br828   1.922       .  S
C175        C342   1.493       .  S
C175        C176   1.409       .  A
C175        C497   1.420       .  A
C176        C177   1.399       .  A
C176        H179   1.083       .  S
C177       Br183   1.919       .  S
H178       C1142   1.083   1_554  S
Br182       C820   1.922       .  S
C184        C185   1.418       .  A
C184       C1158   1.404   1_554  A
C185        C509   1.401       .  A
C185       Br201   1.923       .  S
C186        C187   1.400       .  A
C186        C508   1.401       .  A
C186        H190   1.084       .  S
C187        C191   1.479       .  S
C187        C834   1.408       .  A
C188        C189   1.398       .  A
C188        C833   1.408   1_545  A
C188       Br200   1.920       .  S
C189       C1153   1.404   1_545  A
C189        H192   1.084       .  S
C191        C197   1.406       .  A
C191        C839   1.404       .  A
C193        C194   1.405       .  A
C193        C837   1.404       .  A
C193        H198   1.083   1_565  S
C194        C841   1.414       .  A
C194       Br202   1.921   1_565  S
C195        C196   1.405       .  A
C195        C840   1.414       .  A
C196        C197   1.393       .  A
C196        H199   1.083       .  S
C197       Br203   1.921       .  S
C204        C205   1.417       .  A
C204        C209   1.410       .  A
C205        C206   1.399       .  A
C205       Br867   1.922       .  S
C206        C207   1.400       .  A
C206        H856   1.084       .  S
C207        C211   1.478       .  S
C207        C208   1.404       .  A
C208        C209   1.402       .  A
C208       Br220   1.918       .  S
C209        H212   1.083       .  S
H210        C852   1.084   1_545  S
C211        C213   1.400       .  A
C211        C217   1.403       .  A
C213        C214   1.401       .  A
C213        H218   1.085       .  S
C214        C215   1.419       .  A
C214       Br222   1.922       .  S
C215        C216   1.410       .  A
C216        C217   1.397       .  A
C216        H865   1.082       .  S
C217       Br869   1.918       .  S
H219        C862   1.082   1_545  S
Br221       C851   1.922   1_545  S
Br223       C863   1.918       .  S
C224        C225   1.415       .  A
C224        C229   1.405       .  A
C225        C226   1.404       .  A
C225       Br241   1.920       .  S
C226        C227   1.403       .  A
C226        H230   1.083       .  S
C227        C231   1.479       .  S
C227        C228   1.406       .  A
C228        C229   1.396       .  A
C228       Br886   1.919       .  S
C229        H878   1.083       .  S
C231        C233   1.401       .  A
C231        C237   1.407       .  A
H232        C875   1.083   1_545  S
C233        C234   1.403       .  A
C233        H884   1.083       .  S
C234        C235   1.418       .  A
C234       Br888   1.921       .  S
C235        C236   1.405       .  A
C236        C237   1.399       .  A
C236        H239   1.083       .  S
C237       Br243   1.919       .  S
H238        C879   1.083   1_545  S
Br240       C874   1.919   1_545  S
Br242       C880   1.921   1_545  S
C244        C245   1.413       .  A
C244        C572   1.405   1_554  A
C245        C569   1.402   1_554  A
C245       Br261   1.918       .  S
C246        C247   1.401       .  A
C246        C568   1.402       .  A
C246        H250   1.083       .  S
C247        C251   1.483       .  S
C247        C248   1.409       .  A
C248        C249   1.402       .  A
C248       Br260   1.918       .  S
C249        C567   1.405       .  A
C249        H252   1.083       .  S
C251        C253   1.398       .  A
C251        C257   1.408       .  A
C253        C254   1.397       .  A
C253        H258   1.084       .  S
C254        C255   1.421       .  A
C254       Br262   1.924       .  S
C255        C256   1.409       .  A
C256        C257   1.406       .  A
C256        H259   1.083       .  S
C257       Br263   1.916       .  S
C264        C330   1.497       .  S
C264        C269   1.409       .  A
C264        C588   1.422       .  A
C265        C587   1.422       .  A
C265        C589   1.404   1_554  A
C265       Br281   1.923       .  S
C266        C267   1.400       .  A
C266        C588   1.404       .  A
C266        H270   1.084       .  S
C267        C271   1.482       .  S
C267        C268   1.405       .  A
C268        C269   1.399       .  A
C268       Br280   1.919       .  S
C269        H272   1.083       .  S
C271        C273   1.400       .  A
C271        C277   1.405       .  A
C273        C274   1.402       .  A
C273        H278   1.084       .  S
C274        C275   1.420       .  A
C274       Br282   1.922       .  S
C275        C276   1.411       .  A
C276        C277   1.401       .  A
C276        H279   1.083       .  S
C277       Br283   1.918       .  S
C284        C285   1.411       .  A
C284        C289   1.405       .  A
C285        C286   1.401       .  A
C285       Br301   1.917       .  S
C286        C287   1.401       .  A
C286        H290   1.082       .  S
C287        C291   1.479       .  S
C287        C288   1.409       .  A
C288        C289   1.399       .  A
C288       Br300   1.919       .  S
C289        H292   1.083       .  S
C291        C293   1.405       .  A
C291        C297   1.404       .  A
C293        C294   1.405       .  A
C293        H298   1.083       .  S
C294        C295   1.412       .  A
C294       Br302   1.919       .  S
C295        C296   1.406       .  A
C296        C297   1.393       .  A
C296        H299   1.083       .  S
C297       Br303   1.919       .  S
C304        C305   1.415       .  A
C304        C309   1.407       .  A
C305        C306   1.402       .  A
C305       Br321   1.921       .  S
C306        C307   1.402       .  A
C306        H310   1.084       .  S
C307        C311   1.481       .  S
C307        C308   1.406       .  A
C308        C309   1.400       .  A
C308       Br320   1.918       .  S
C309        H312   1.082       .  S
C311        C313   1.401       .  A
C311        C317   1.407       .  A
C313        C314   1.399       .  A
C313        H318   1.083       .  S
C314        C315   1.413       .  A
C314       Br322   1.921       .  S
C315        C316   1.407       .  A
C316        C317   1.402       .  A
C316        H319   1.083       .  S
C317       Br323   1.917       .  S
C324        N325   1.361       .  A
C324        N329   1.359       .  A
C324        C638   1.483       .  S
N325        C326   1.361       .  A
C326        N327   1.359       .  A
C326        C332   1.473       .  S
N327        C328   1.358       .  A
C328        N329   1.358       .  A
C328        C607   1.480       .  S
C330        N331   1.360       .  A
C330        N335   1.364       .  A
N331        C332   1.359       .  A
C332        N333   1.359       .  A
N333        C334   1.358       .  A
C334        N335   1.361       .  A
C334        C567   1.484       .  S
C336        N337   1.362       .  A
C336        N341   1.363       .  A
C336        C527   1.489       .  S
N337        C338   1.359       .  A
C338        N339   1.353       .  A
C338        C558   1.485       .  S
N339        C340   1.357       .  A
C340        N341   1.359       .  A
C340        C344   1.468       .  S
C342        N343   1.362       .  A
C342        N347   1.364       .  A
N343        C344   1.360       .  A
C344        N345   1.354       .  A
N345        C346   1.352       .  A
C346        N347   1.360       .  A
C346        C507   1.482       .  S
C348        N349   1.359       .  A
C348        N353   1.360       .  A
C348        C478   1.479       .  S
N349        C350   1.358       .  A
C350        N351   1.358       .  A
C350        C358   1.468       .  S
N351        C352   1.357       .  A
C352        N353   1.359       .  A
C352        C447   1.481       .  S
C354        N355   1.361       .  A
C354        N359   1.360       .  A
N355        C356   1.358       .  A
C356        N357   1.355       .  A
C356        C418   1.473       .  S
N357        C358   1.357       .  A
C358        N359   1.360       .  A
O360       Mn386   2.102       .  S
O360       C1679   1.272   1_455  A
C361        C627   1.487       .  S
C361        O394   1.273       .  A
C361        O391   1.273       .  A
O362       Mn369   2.169       .  S
O362       Mn380   2.123       .  S
O362       Mn384   2.167       .  S
O362      Mn1678   2.131       .  S
O363       Mn397   2.100       .  S
O363        C373   1.273       .  A
O364       Mn380   2.094       .  S
O364        C387   1.272       .  A
O365       Mn384   2.119       .  S
O365        C392   1.256       .  A
O366      Mn1043   1.964       .  S
O366       Mn386   1.962       .  S
O366        C382   1.221       .  S
C367        C407   1.488       .  S
C367        O370   1.254       .  A
C367        O393   1.213       .  S
O368      Mn1034   2.116       .  S
O368       Mn369   2.164       .  S
O368       Mn402   2.123       .  S
O368       Mn384   2.165       .  S
Mn369      O1044   2.115       .  S
Mn369       O374   2.113       .  S
Mn369      O1693   2.091       .  S
Mn369      O2313   2.168       .  S
O370      Mn1030   2.115   1_545  S
O371       Mn378   2.096       .  S
O371        C373   1.271       .  A
C372        C458   1.481       .  S
C372        O398   1.253       .  A
C372        O385   1.215       .  S
C373        C598   1.495       .  S
O374        C399   1.253       .  A
O375      Mn2307   2.168   1_445  S
O375       Mn378   2.119       .  S
O375       Mn397   2.129       .  S
O375      Mn2322   2.173   1_445  S
O376       Mn380   1.955       .  S
O376       Mn402   1.954       .  S
O376        C399   1.216       .  S
C377        C487   1.488       .  S
C377       O1049   1.272       .  A
C377        O379   1.271       .  A
Mn378       O391   2.101       .  S
Mn378      O1685   1.959   1_455  S
Mn378      O1677   1.957   1_455  S
O379       Mn402   2.095       .  S
Mn380       O396   2.092       .  S
Mn380       O390   1.964       .  S
O381       Mn386   2.092       .  S
O381       C1675   1.270   1_455  A
C382        C518   1.481       .  S
C382        O400   1.253       .  A
C383        C467   1.483       .  S
C383       O1673   1.270       .  A
C383        O396   1.272       .  A
Mn384      O1016   2.115       .  S
Mn384      O1692   2.102       .  S
Mn384      O2313   2.173       .  S
O385      Mn1670   1.957       .  S
O385       Mn388   1.953       .  S
Mn386      O1654   2.131   1_455  S
Mn386       O404   1.970       .  S
C387        C427   1.491       .  S
C387       O1652   1.272       .  A
Mn388       O395   2.092   1_545  S
Mn388       O403   2.090   1_545  S
Mn388      O1014   2.116   1_545  S
Mn388       O393   1.958       .  S
C389        C538   1.492       .  S
C389       O1041   1.272       .  A
C389        O405   1.271       .  A
O390       Mn402   1.965       .  S
O390        C392   1.217       .  S
C392        C578   1.492       .  S
O393      Mn1670   1.959       .  S
O394       Mn397   2.096       .  S
O395       C1035   1.272       .  A
Mn397      O1012   1.964   1_545  S
Mn397      O1050   1.968   1_545  S
O398      Mn1015   2.115   1_545  S
C399        C618   1.480       .  S
O400      Mn1676   2.102   1_455  S
O401      Mn1661   2.091   1_455  S
O401        C406   1.252       .  A
Mn402       O405   2.098       .  S
O403       C1023   1.272       .  A
O404      Mn1043   1.968       .  S
O404        C406   1.224       .  S
C406        C547   1.482       .  S
C407        C408   1.422       .  A
C407        C412   1.408       .  A
C408        C409   1.394       .  A
C408       Br424   1.926       .  S
C409        C410   1.398       .  A
C409        H413   1.084       .  S
C410        C414   1.482       .  S
C410        C411   1.408       .  A
C411        C412   1.403       .  A
C412        H415   1.083       .  S
C414        C416   1.404       .  A
C414       C1712   1.411       .  A
C416        H421   1.083       .  S
C417        C418   1.410       .  A
C417       Br425   1.918       .  S
C419       C1712   1.397       .  A
C419       H1714   1.083       .  S
C420       C1706   1.411   1_455  A
C420       C1711   1.397       .  A
C420       Br426   1.918       .  S
H422       C1711   1.083       .  S
C427       C1720   1.418       .  A
C427        C432   1.411       .  A
C428       C1719   1.418   1_455  A
C428       C1721   1.400       .  A
C428       Br444   1.920       .  S
C429       C1720   1.400       .  A
C429        C430   1.399       .  A
C429       H1725   1.083       .  S
C430        C434   1.480       .  S
C430        C431   1.406       .  A
C431        C432   1.402       .  A
C431       Br443   1.919       .  S
C432        H435   1.083       .  S
H433       C1721   1.083       .  S
C434        C436   1.401       .  A
C434        C440   1.405       .  A
C437      Br1737   1.922       .  S
C438        C439   1.408   1_554  A
C439        C440   1.397       .  A
C439        H442   1.083       .  S
C440       Br446   1.919       .  S
Br445      C1729   1.922   1_455  S
C447        C448   1.414       .  A
C447       C1744   1.404       .  A
C448        C449   1.402       .  A
C448       Br464   1.919       .  S
C449        C450   1.401       .  A
C449        H453   1.083       .  S
C450        C454   1.478       .  S
C450       C1743   1.408       .  A
C451       C1742   1.408       .  A
C451        C452   1.397       .  A
C451       Br463   1.920   1_655  S
C452       C1739   1.404       .  A
C452        H455   1.084   1_655  S
C454       C1748   1.405       .  A
C454        C460   1.404       .  A
C456       C1746   1.405       .  A
C456        C457   1.405       .  A
C456        H461   1.083   1_655  S
C457       C1750   1.412       .  A
C457       Br465   1.919   1_655  S
C458       C1749   1.412       .  A
C458        C459   1.407       .  A
C459        C460   1.392       .  A
C459        H462   1.082       .  S
C460       Br466   1.921       .  S
C467       C1760   1.416       .  A
C467        C472   1.406       .  A
C468       C1759   1.416   1_455  A
C468        C469   1.401       .  A
C468       Br484   1.921       .  S
C469       C1762   1.401   1_455  A
C469        H473   1.084       .  S
C470        C474   1.476       .  S
C470       C1761   1.401       .  A
C470        C471   1.404       .  A
C471        C472   1.396       .  A
C471       Br483   1.918       .  S
C472        H475   1.082       .  S
C474        C476   1.402       .  A
C474        C480   1.405       .  A
C476        C477   1.398       .  A
C476        H481   1.083       .  S
C477        C478   1.412       .  A
C477       Br485   1.920       .  S
C478        C479   1.407       .  A
C479        C480   1.401       .  A
C479       H1774   1.083       .  S
C480      Br1778   1.918       .  S
H482       C1771   1.083   1_455  S
Br486      C1772   1.918       .  S
C487        C488   1.419       .  A
C487       C1138   1.409       .  A
C488        C489   1.402       .  A
C488       Br504   1.923       .  S
C489        C490   1.401       .  A
C489        H493   1.083       .  S
C490        C494   1.479       .  S
C490       C1137   1.405       .  A
C491       C1136   1.405   1_545  A
C491        C492   1.398       .  A
C491       Br503   1.918       .  S
C492       C1133   1.409   1_545  A
C492        H495   1.083       .  S
C494        C496   1.400       .  A
C494        C500   1.405       .  A
C496        H824   1.083   1_556  S
C497      Br1151   1.922       .  S
C498        C499   1.409   1_554  A
C499        C500   1.399       .  A
C499        H502   1.083       .  S
C500       Br506   1.919       .  S
H501        C819   1.083       .  S
Br505      C1143   1.922       .  S
C507        C508   1.418       .  A
C507        C835   1.404       .  A
C508       Br524   1.923       .  S
C509        C510   1.400   1_554  A
C509        H513   1.084       .  S
C510        C514   1.479       .  S
C510       C1157   1.408       .  A
C511       C1156   1.408   1_545  A
C511        C512   1.398       .  A
C511       Br523   1.920       .  S
C512        C830   1.404   1_546  A
C512        H515   1.084       .  S
C514       C1162   1.404       .  A
C514        C520   1.406       .  A
C516       C1160   1.404       .  A
C516        C517   1.405       .  A
C516        H521   1.083   1_565  S
C517       C1164   1.414       .  A
C517       Br525   1.921   1_565  S
C518       C1163   1.414       .  A
C518        C519   1.405       .  A
C519        C520   1.393       .  A
C519        H522   1.083       .  S
C520       Br526   1.921       .  S
C527        C528   1.417       .  A
C527        C532   1.410       .  A
C528        C529   1.399       .  A
C528      Br1190   1.922       .  S
C529        C530   1.400       .  A
C529       H1179   1.084       .  S
C530        C534   1.478       .  S
C530        C531   1.404       .  A
C531        C532   1.402       .  A
C531       Br543   1.918       .  S
C532        H535   1.083       .  S
H533       C1175   1.084   1_545  S
C534        C536   1.400       .  A
C534        C540   1.403       .  A
C536        C537   1.401       .  A
C536        H541   1.085       .  S
C537        C538   1.419       .  A
C537       Br545   1.922       .  S
C538        C539   1.410       .  A
C539        C540   1.397       .  A
C539       H1188   1.082       .  S
C540      Br1192   1.918       .  S
H542       C1185   1.082   1_545  S
Br544      C1174   1.922   1_545  S
Br546      C1186   1.918       .  S
C547        C548   1.415       .  A
C547        C552   1.405       .  A
C548        C549   1.404       .  A
C548       Br564   1.920       .  S
C549        C550   1.403       .  A
C549        H553   1.083       .  S
C550        C554   1.479       .  S
C550        C551   1.406       .  A
C551        C552   1.396       .  A
C551      Br1209   1.919       .  S
C552       H1201   1.083       .  S
C554        C556   1.401       .  A
C554        C560   1.407       .  A
H555       C1198   1.083   1_545  S
C556        C557   1.403       .  A
C556       H1207   1.083       .  S
C557        C558   1.418       .  A
C557      Br1211   1.921       .  S
C558        C559   1.405       .  A
C559        C560   1.399       .  A
C559        H562   1.083       .  S
C560       Br566   1.919       .  S
H561       C1202   1.083   1_545  S
Br563      C1197   1.919   1_545  S
Br565      C1203   1.921   1_545  S
C567        C568   1.413       .  A
C568       Br584   1.918       .  S
C569        C570   1.401       .  A
C569        H573   1.083   1_556  S
C570        C574   1.483       .  S
C570        C571   1.409       .  A
C571        C572   1.402       .  A
C571       Br583   1.918       .  S
C572        H575   1.083       .  S
C574        C576   1.398       .  A
C574        C580   1.408       .  A
C576        C577   1.397       .  A
C576        H581   1.084       .  S
C577        C578   1.421       .  A
C577       Br585   1.924       .  S
C578        C579   1.409       .  A
C579        C580   1.406       .  A
C579        H582   1.083       .  S
C580       Br586   1.916   1_556  S
C587        C592   1.409   1_554  A
C588       Br604   1.923       .  S
C589        C590   1.400       .  A
C589        H593   1.084   1_556  S
C590        C594   1.482       .  S
C590        C591   1.405       .  A
C591        C592   1.399       .  A
C591       Br603   1.919       .  S
C592        H595   1.083       .  S
C594        C596   1.400       .  A
C594        C600   1.405       .  A
C596        C597   1.402       .  A
C596        H601   1.084       .  S
C597        C598   1.420       .  A
C597       Br605   1.922       .  S
C598        C599   1.411       .  A
C599        C600   1.401       .  A
C599        H602   1.083       .  S
C600       Br606   1.918       .  S
C607        C608   1.411       .  A
C607        C612   1.405       .  A
C608        C609   1.401       .  A
C608       Br624   1.917       .  S
C609        C610   1.401       .  A
C609        H613   1.082       .  S
C610        C614   1.479       .  S
C610        C611   1.409       .  A
C611        C612   1.399       .  A
C611       Br623   1.919       .  S
C612        H615   1.083       .  S
C614        C616   1.405       .  A
C614        C620   1.404       .  A
C616        C617   1.405       .  A
C616        H621   1.083       .  S
C617        C618   1.412       .  A
C617       Br625   1.919       .  S
C618        C619   1.406       .  A
C619        C620   1.393       .  A
C619        H622   1.083       .  S
C620       Br626   1.919       .  S
C627        C628   1.415       .  A
C627        C632   1.407       .  A
C628        C629   1.402       .  A
C628       Br644   1.921       .  S
C629        C630   1.402       .  A
C629        H633   1.084       .  S
C630        C634   1.481       .  S
C630        C631   1.406       .  A
C631        C632   1.400       .  A
C631       Br643   1.918       .  S
C632        H635   1.082       .  S
C634        C636   1.401       .  A
C634        C640   1.407       .  A
C636        C637   1.399       .  A
C636        H641   1.083       .  S
C637        C638   1.413       .  A
C637       Br645   1.921       .  S
C638        C639   1.407       .  A
C639        C640   1.402       .  A
C639        H642   1.083       .  S
C640       Br646   1.917       .  S
C647        N648   1.361       .  A
C647        N652   1.359       .  A
C647        C961   1.483       .  S
N648        C649   1.361       .  A
C649        N650   1.359       .  A
C649        C655   1.473       .  S
N650        C651   1.358       .  A
C651        N652   1.358       .  A
C651        C930   1.480       .  S
C653        N654   1.360       .  A
C653        N658   1.364       .  A
C653       C1233   1.497       .  S
N654        C655   1.359       .  A
C655        N656   1.359       .  A
N656        C657   1.358       .  A
C657        N658   1.361       .  A
C657        C890   1.484       .  S
C659        N660   1.362       .  A
C659        N664   1.363       .  A
C659        C850   1.489       .  S
N660        C661   1.359       .  A
C661        N662   1.353       .  A
C661        C881   1.485       .  S
N662        C663   1.357       .  A
C663        N664   1.359       .  A
C663        C667   1.468       .  S
C665        N666   1.362       .  A
C665        N670   1.364       .  A
C665       C1144   1.493       .  S
N666        C667   1.360       .  A
C667        N668   1.354       .  A
N668        C669   1.352       .  A
C669        N670   1.360       .  A
C669        C830   1.482       .  S
C671        N672   1.359       .  A
C671        N676   1.360       .  A
C671        C801   1.479       .  S
N672        C673   1.358       .  A
C673        N674   1.358       .  A
C673        C681   1.468       .  S
N674        C675   1.357       .  A
C675        N676   1.359       .  A
C675        C770   1.481       .  S
C677        N678   1.361       .  A
C677        N682   1.360       .  A
C677       C1084   1.491       .  S
N678        C679   1.358       .  A
C679        N680   1.355       .  A
C679        C741   1.473       .  S
N680        C681   1.357       .  A
C681        N682   1.360       .  A
O683       Mn709   2.102       .  S
O683       C2002   1.272   1_455  A
C684        C950   1.487       .  S
C684        O717   1.273       .  A
C684        O714   1.273       .  A
O685       Mn692   2.169       .  S
O685       Mn703   2.123       .  S
O685       Mn707   2.167       .  S
O685      Mn2001   2.131       .  S
O686       Mn720   2.100       .  S
O686        C696   1.273       .  A
O687       Mn703   2.094       .  S
O687        C710   1.272       .  A
O688       Mn707   2.119       .  S
O688        C715   1.256       .  A
O689       Mn709   1.962       .  S
O689        C705   1.221       .  S
C690        C730   1.488       .  S
C690        O693   1.254       .  A
C690        O716   1.213       .  S
O691       Mn692   2.164       .  S
O691       Mn725   2.123       .  S
O691       Mn707   2.165       .  S
Mn692       O697   2.113       .  S
Mn692      O2016   2.091       .  S
Mn692      O1344   2.168   1_565  S
O694       Mn701   2.096       .  S
O694        C696   1.271       .  A
C695        C781   1.481       .  S
C695        O721   1.253       .  A
C695        O708   1.215       .  S
C696        C921   1.495       .  S
O697        C722   1.253       .  A
O698      Mn1338   2.168   1_455  S
O698       Mn701   2.119       .  S
O698       Mn720   2.129       .  S
O698      Mn1353   2.173   1_455  S
O699       Mn703   1.955       .  S
O699       Mn725   1.954       .  S
O699        C722   1.216       .  S
C700        C810   1.488       .  S
C700        O702   1.271       .  A
Mn701       O714   2.101       .  S
Mn701      O2008   1.959   1_455  S
Mn701      O2000   1.957   1_455  S
O702       Mn725   2.095       .  S
Mn703       O719   2.092       .  S
Mn703       O713   1.964       .  S
O704       Mn709   2.092       .  S
O704       C1998   1.270   1_455  A
C705        C841   1.481       .  S
C705        O723   1.253       .  A
C706        C790   1.483       .  S
C706       O1996   1.270       .  A
C706        O719   1.272       .  A
Mn707      O2015   2.102       .  S
Mn707      O1344   2.173   1_565  S
O708      Mn1993   1.957       .  S
O708       Mn711   1.953       .  S
Mn709      O1977   2.131   1_455  S
Mn709       O727   1.970       .  S
C710        C750   1.491       .  S
C710       O1975   1.272       .  A
Mn711       O718   2.092       .  S
Mn711       O726   2.090       .  S
Mn711       O716   1.958       .  S
C712        C861   1.492       .  S
C712        O728   1.271       .  A
O713       Mn725   1.965       .  S
O713        C715   1.217       .  S
C715        C901   1.492       .  S
O716      Mn1993   1.959       .  S
O717       Mn720   2.096       .  S
C722        C941   1.480       .  S
O723      Mn1999   2.102   1_455  S
O724      Mn1984   2.091   1_455  S
O724        C729   1.252       .  A
Mn725       O728   2.098       .  S
O727        C729   1.224       .  S
C729        C870   1.482       .  S
C730        C731   1.422       .  A
C730        C735   1.408       .  A
C731        C732   1.394       .  A
C731       Br747   1.926       .  S
C732        C733   1.398       .  A
C732        H736   1.084       .  S
C733        C737   1.482       .  S
C733        C734   1.408       .  A
C734        C735   1.403       .  A
C734      Br1069   1.917       .  S
C735        H738   1.083       .  S
C737        C739   1.404       .  A
C737       C2035   1.411       .  A
C739       C1063   1.401       .  A
C739        H744   1.083       .  S
C740       C1062   1.401   1_554  A
C740        C741   1.410       .  A
C740       Br748   1.918       .  S
C741       C1065   1.401   1_554  A
C742       C1064   1.401       .  A
C742       C2035   1.397       .  A
C742       H2037   1.083       .  S
C743       C2029   1.411   1_455  A
C743       C2034   1.397       .  A
C743       Br749   1.918       .  S
H745       C2034   1.083       .  S
Br746      C1057   1.917   1_554  S
C750       C2043   1.418       .  A
C750        C755   1.411       .  A
C751       C2042   1.418   1_455  A
C751       C2044   1.400       .  A
C751       Br767   1.920       .  S
C752       C2043   1.400       .  A
C752        C753   1.399       .  A
C752       H2048   1.083       .  S
C753        C757   1.480       .  S
C753        C754   1.406       .  A
C754        C755   1.402       .  A
C754       Br766   1.919       .  S
C755        H758   1.083       .  S
H756       C2044   1.083       .  S
C757        C759   1.401       .  A
C757        C763   1.405       .  A
C759       C1083   1.404       .  A
C759       H1087   1.084       .  S
C760       C1082   1.404   1_554  A
C760       C1084   1.419       .  A
C760      Br2060   1.922       .  S
C761       C1000   1.491       .  S
C761       C1083   1.419       .  A
C761        C762   1.408       .  A
C762        C763   1.397       .  A
C762        H765   1.083       .  S
C763       Br769   1.919       .  S
H764       C1082   1.084   1_554  S
Br768      C2052   1.922   1_455  S
C770        C771   1.414       .  A
C770       C2067   1.404       .  A
C771        C772   1.402       .  A
C771       Br787   1.919       .  S
C772        C773   1.401       .  A
C772        H776   1.083       .  S
C773        C777   1.478       .  S
C773       C2066   1.408       .  A
C774       C2065   1.408       .  A
C774        C775   1.397       .  A
C774       Br786   1.920   1_655  S
C775       C2062   1.404       .  A
C775        H778   1.084   1_655  S
C777       C2071   1.405       .  A
C777        C783   1.404       .  A
C779       C2069   1.405       .  A
C779        C780   1.405       .  A
C779        H784   1.083   1_655  S
C780       C2073   1.412       .  A
C780       Br788   1.919   1_655  S
C781       C2072   1.412       .  A
C781        C782   1.407       .  A
C782        C783   1.392       .  A
C782        H785   1.082       .  S
C783       Br789   1.921       .  S
C790       C2083   1.416       .  A
C790        C795   1.406       .  A
C791       C2082   1.416   1_455  A
C791        C792   1.401       .  A
C791       Br807   1.921       .  S
C792       C2085   1.401   1_455  A
C792        H796   1.084       .  S
C793        C797   1.476       .  S
C793       C2084   1.401       .  A
C793        C794   1.404       .  A
C794        C795   1.396       .  A
C794       Br806   1.918       .  S
C795        H798   1.082       .  S
C797        C799   1.402       .  A
C797        C803   1.405       .  A
C799        C800   1.398       .  A
C799        H804   1.083       .  S
C800        C801   1.412       .  A
C800       Br808   1.920       .  S
C801        C802   1.407       .  A
C802        C803   1.401       .  A
C802       H2097   1.083       .  S
C803      Br2101   1.918       .  S
H805       C2094   1.083   1_455  S
Br809      C2095   1.918       .  S
C810        C811   1.419       .  A
C811        C812   1.402       .  A
C811       Br827   1.923       .  S
C812        C813   1.401       .  A
C812        H816   1.083       .  S
C813        C817   1.479       .  S
C814        C815   1.398       .  A
C814       Br826   1.918       .  S
C815        H818   1.083       .  S
C817        C819   1.400       .  A
C817        C823   1.405       .  A
C819       C1143   1.403       .  A
C820       C1142   1.403   1_554  A
C820       C1144   1.420       .  A
C821        C988   1.493       .  S
C821       C1143   1.420       .  A
C821        C822   1.409       .  A
C822        C823   1.399       .  A
C822        H825   1.083   1_565  S
C823       Br829   1.919   1_565  S
C830        C831   1.418       .  A
C831       C1155   1.401       .  A
C831       Br847   1.923       .  S
C832       C1154   1.401       .  A
C832        C833   1.400       .  A
C832        H836   1.084       .  S
C833        C837   1.479       .  S
C834        C835   1.398       .  A
C834       Br846   1.920       .  S
C835        H838   1.084       .  S
C837        C843   1.406       .  A
C839        C840   1.405       .  A
C839        H844   1.083       .  S
C840       Br848   1.921       .  S
C841        C842   1.405       .  A
C842        C843   1.393       .  A
C842        H845   1.083       .  S
C843       Br849   1.921       .  S
C850        C851   1.417       .  A
C850        C855   1.410       .  A
C851        C852   1.399       .  A
C852        C853   1.400       .  A
C853        C857   1.478       .  S
C853        C854   1.404       .  A
C854        C855   1.402       .  A
C854       Br866   1.918       .  S
C855        H858   1.083       .  S
C857        C859   1.400       .  A
C857        C863   1.403   1_565  A
C859        C860   1.401       .  A
C859        H864   1.085       .  S
C860        C861   1.419       .  A
C860       Br868   1.922       .  S
C861        C862   1.410       .  A
C862        C863   1.397   1_565  A
C870        C871   1.415       .  A
C870        C875   1.405       .  A
C871        C872   1.404       .  A
C871       Br887   1.920       .  S
C872        C873   1.403       .  A
C872        H876   1.083       .  S
C873        C877   1.479       .  S
C873        C874   1.406       .  A
C874        C875   1.396       .  A
C877        C879   1.401       .  A
C877        C883   1.407       .  A
C879        C880   1.403       .  A
C880        C881   1.418       .  A
C881        C882   1.405       .  A
C882        C883   1.399       .  A
C882        H885   1.083       .  S
C883       Br889   1.919       .  S
C890        C891   1.413       .  A
C890       C1218   1.405   1_554  A
C891       C1215   1.402   1_554  A
C891       Br907   1.918       .  S
C892       C1214   1.402       .  A
C892        C893   1.401       .  A
C892        H896   1.083       .  S
C893        C897   1.483       .  S
C893        C894   1.409       .  A
C894        C895   1.402       .  A
C894       Br906   1.918       .  S
C895       C1213   1.405       .  A
C895        H898   1.083       .  S
C897        C899   1.398       .  A
C897        C903   1.408       .  A
C899        C900   1.397       .  A
C899        H904   1.084       .  S
C900        C901   1.421       .  A
C900       Br908   1.924       .  S
C901        C902   1.409       .  A
C902        C903   1.406       .  A
C902        H905   1.083       .  S
C903       Br909   1.916       .  S
C910        C976   1.497       .  S
C910       C1234   1.422       .  A
C910        C915   1.409       .  A
C911       C1233   1.422       .  A
C911       C1235   1.404   1_554  A
C911       Br927   1.923       .  S
C912       C1234   1.404       .  A
C912        C913   1.400       .  A
C912        H916   1.084       .  S
C913        C917   1.482       .  S
C913        C914   1.405       .  A
C914        C915   1.399       .  A
C914       Br926   1.919       .  S
C915        H918   1.083       .  S
C917        C919   1.400       .  A
C917        C923   1.405       .  A
C919        C920   1.402       .  A
C919        H924   1.084       .  S
C920        C921   1.420       .  A
C920       Br928   1.922       .  S
C921        C922   1.411       .  A
C922        C923   1.401       .  A
C922        H925   1.083       .  S
C923       Br929   1.918       .  S
C930        C931   1.411       .  A
C930        C935   1.405       .  A
C931        C932   1.401       .  A
C931       Br947   1.917       .  S
C932        C933   1.401       .  A
C932        H936   1.082       .  S
C933        C937   1.479       .  S
C933        C934   1.409       .  A
C934        C935   1.399       .  A
C934       Br946   1.919       .  S
C935        H938   1.083       .  S
C937        C939   1.405       .  A
C937        C943   1.404       .  A
C939        C940   1.405       .  A
C939        H944   1.083       .  S
C940        C941   1.412       .  A
C940       Br948   1.919       .  S
C941        C942   1.406       .  A
C942        C943   1.393       .  A
C942        H945   1.083       .  S
C943       Br949   1.919       .  S
C950        C951   1.415       .  A
C950        C955   1.407       .  A
C951        C952   1.402       .  A
C951       Br967   1.921       .  S
C952        C953   1.402       .  A
C952        H956   1.084       .  S
C953        C957   1.481       .  S
C953        C954   1.406       .  A
C954        C955   1.400       .  A
C954       Br966   1.918       .  S
C955        H958   1.082       .  S
C957        C959   1.401       .  A
C957        C963   1.407       .  A
C959        C960   1.399       .  A
C959        H964   1.083       .  S
C960        C961   1.413       .  A
C960       Br968   1.921       .  S
C961        C962   1.407       .  A
C962        C963   1.402       .  A
C962        H965   1.083       .  S
C963       Br969   1.917       .  S
C970        N971   1.361       .  A
C970        N975   1.359       .  A
C970       C1284   1.483       .  S
N971        C972   1.361       .  A
C972        N973   1.359       .  A
C972        C978   1.473       .  S
N973        C974   1.358       .  A
C974        N975   1.358       .  A
C974       C1253   1.480       .  S
C976        N977   1.360       .  A
C976        N981   1.364       .  A
N977        C978   1.359       .  A
C978        N979   1.359       .  A
N979        C980   1.358       .  A
C980        N981   1.361       .  A
C980       C1213   1.484       .  S
C982        N983   1.362       .  A
C982        N987   1.363       .  A
C982       C1173   1.489       .  S
N983        C984   1.359       .  A
C984        N985   1.353       .  A
C984       C1204   1.485       .  S
N985        C986   1.357       .  A
C986        N987   1.359       .  A
C986        C990   1.468       .  S
C988        N989   1.362       .  A
C988        N993   1.364       .  A
N989        C990   1.360       .  A
C990        N991   1.354       .  A
N991        C992   1.352       .  A
C992        N993   1.360       .  A
C992       C1153   1.482       .  S
C994        N995   1.359       .  A
C994        N999   1.360       .  A
C994       C1124   1.479       .  S
N995        C996   1.358       .  A
C996        N997   1.358       .  A
C996       C1004   1.468       .  S
N997        C998   1.357       .  A
C998        N999   1.359       .  A
C998       C1093   1.481       .  S
C1000      N1001   1.361       .  A
C1000      N1005   1.360       .  A
N1001      C1002   1.358       .  A
C1002      N1003   1.355       .  A
C1002      C1064   1.473       .  S
N1003      C1004   1.357       .  A
C1004      N1005   1.360       .  A
O1006     Mn1032   2.102       .  S
O1006      C2325   1.272   1_455  A
C1007      C1273   1.487       .  S
C1007      O1040   1.273       .  A
C1007      O1037   1.273       .  A
O1008     Mn1015   2.169       .  S
O1008     Mn1026   2.123       .  S
O1008     Mn1030   2.167       .  S
O1008     Mn2324   2.131       .  S
O1009     Mn1043   2.100       .  S
O1009      C1019   1.273       .  A
O1010     Mn1026   2.094       .  S
O1010      C1033   1.272       .  A
O1011     Mn1030   2.119       .  S
O1011      C1038   1.256       .  A
O1012     Mn1032   1.962       .  S
O1012      C1028   1.221       .  S
C1013      C1053   1.488       .  S
C1013      O1016   1.254       .  A
C1013      O1039   1.213       .  S
O1014     Mn1015   2.164       .  S
O1014     Mn1048   2.123       .  S
O1014     Mn1030   2.165       .  S
Mn1015     O1020   2.113       .  S
Mn1015     O2339   2.091       .  S
Mn1015     O1667   2.168   1_565  S
O1017     Mn1024   2.096       .  S
O1017      C1019   1.271       .  A
C1018      C1104   1.481       .  S
C1018      O1044   1.253       .  A
C1018      O1031   1.215       .  S
C1019      C1244   1.495       .  S
O1020      C1045   1.253       .  A
O1021     Mn1661   2.168   1_455  S
O1021     Mn1024   2.119       .  S
O1021     Mn1043   2.129       .  S
O1021     Mn1676   2.173   1_455  S
O1022     Mn1026   1.955       .  S
O1022     Mn1048   1.954       .  S
O1022      C1045   1.216       .  S
C1023      C1133   1.488       .  S
C1023      O1025   1.271       .  A
Mn1024     O1037   2.101       .  S
Mn1024     O2331   1.959   1_455  S
Mn1024     O2323   1.957   1_455  S
O1025     Mn1048   2.095       .  S
Mn1026     O1042   2.091       .  S
Mn1026     O1036   1.964       .  S
O1027     Mn1032   2.092       .  S
O1027      C2321   1.270   1_455  A
C1028      C1164   1.481       .  S
C1028      O1046   1.253       .  A
C1029      C1113   1.483       .  S
C1029      O2319   1.270       .  A
C1029      O1042   1.272       .  A
Mn1030     O2338   2.102       .  S
Mn1030     O1667   2.173   1_565  S
O1031     Mn2316   1.957       .  S
O1031     Mn1034   1.953       .  S
Mn1032     O2300   2.131   1_455  S
Mn1032     O1050   1.970       .  S
C1033      C1073   1.491       .  S
C1033      O2298   1.272       .  A
Mn1034     O1041   2.092       .  S
Mn1034     O1049   2.090       .  S
Mn1034     O1039   1.958       .  S
C1035      C1184   1.492       .  S
C1035      O1051   1.271       .  A
O1036     Mn1048   1.965       .  S
O1036      C1038   1.217       .  S
C1038      C1224   1.492       .  S
O1039     Mn2316   1.959       .  S
O1040     Mn1043   2.096       .  S
C1045      C1264   1.480       .  S
O1046     Mn2322   2.102   1_455  S
O1047     Mn2307   2.091   1_455  S
O1047      C1052   1.252       .  A
Mn1048     O1051   2.098       .  S
O1050      C1052   1.224       .  S
C1052      C1193   1.482       .  S
C1053      C1054   1.422       .  A
C1053      C1058   1.408       .  A
C1054      C1055   1.394       .  A
C1054     Br1070   1.926       .  S
C1055      C1056   1.398       .  A
C1055      H1059   1.084       .  S
C1056      C1060   1.482       .  S
C1056      C1057   1.408       .  A
C1057      C1058   1.403       .  A
C1058      H1061   1.083       .  S
C1060      C1062   1.404       .  A
C1060      C2358   1.411       .  A
C1062      H1067   1.083       .  S
C1063      C1064   1.410       .  A
C1063     Br1071   1.918       .  S
C1065      C2358   1.397       .  A
C1065      H2360   1.083       .  S
C1066      C2352   1.411   1_455  A
C1066      C2357   1.397       .  A
C1066     Br1072   1.918       .  S
H1068      C2357   1.083       .  S
C1073      C2366   1.418       .  A
C1073      C1078   1.411       .  A
C1074      C2365   1.418   1_455  A
C1074      C2367   1.400       .  A
C1074     Br1090   1.920       .  S
C1075      C2366   1.400       .  A
C1075      C1076   1.399       .  A
C1075      H2371   1.083       .  S
C1076      C1080   1.480       .  S
C1076      C1077   1.406       .  A
C1077      C1078   1.402       .  A
C1077     Br1089   1.919       .  S
C1078      H1081   1.083       .  S
H1079      C2367   1.083       .  S
C1080      C1082   1.401       .  A
C1080      C1086   1.405       .  A
C1083     Br2383   1.922       .  S
C1084      C1085   1.408   1_554  A
C1085      C1086   1.397       .  A
C1085      H1088   1.083       .  S
C1086     Br1092   1.919       .  S
Br1091     C2375   1.922   1_455  S
C1093      C1094   1.414       .  A
C1093      C2390   1.404       .  A
C1094      C1095   1.402       .  A
C1094     Br1110   1.919       .  S
C1095      C1096   1.401       .  A
C1095      H1099   1.083       .  S
C1096      C1100   1.478       .  S
C1096      C2389   1.408       .  A
C1097      C2388   1.408       .  A
C1097      C1098   1.397       .  A
C1097     Br1109   1.920   1_655  S
C1098      C2385   1.404       .  A
C1098      H1101   1.084   1_655  S
C1100      C2394   1.405       .  A
C1100      C1106   1.404       .  A
C1102      C2392   1.405       .  A
C1102      C1103   1.405       .  A
C1102      H1107   1.083   1_655  S
C1103      C2396   1.412       .  A
C1103     Br1111   1.919   1_655  S
C1104      C2395   1.412       .  A
C1104      C1105   1.407       .  A
C1105      C1106   1.392       .  A
C1105      H1108   1.082       .  S
C1106     Br1112   1.921       .  S
C1113      C2406   1.416       .  A
C1113      C1118   1.406       .  A
C1114      C2405   1.416   1_455  A
C1114      C1115   1.401       .  A
C1114     Br1130   1.921       .  S
C1115      C2408   1.401   1_455  A
C1115      H1119   1.084       .  S
C1116      C1120   1.476       .  S
C1116      C2407   1.401       .  A
C1116      C1117   1.404       .  A
C1117      C1118   1.396       .  A
C1117     Br1129   1.918       .  S
C1118      H1121   1.082       .  S
C1120      C1122   1.402       .  A
C1120      C1126   1.405       .  A
C1122      C1123   1.398       .  A
C1122      H1127   1.083       .  S
C1123      C1124   1.412       .  A
C1123     Br1131   1.920       .  S
C1124      C1125   1.407       .  A
C1125      C1126   1.401       .  A
C1125      H2420   1.083       .  S
C1126     Br2424   1.918       .  S
H1128      C2417   1.083   1_455  S
Br1132     C2418   1.918       .  S
C1133      C1134   1.419       .  A
C1134      C1135   1.402       .  A
C1134     Br1150   1.923       .  S
C1135      C1136   1.401       .  A
C1135      H1139   1.083       .  S
C1136      C1140   1.479       .  S
C1137      C1138   1.398       .  A
C1137     Br1149   1.918       .  S
C1138      H1141   1.083       .  S
C1140      C1142   1.400       .  A
C1140      C1146   1.405       .  A
C1144      C1145   1.409   1_554  A
C1145      C1146   1.399       .  A
C1145      H1148   1.083   1_565  S
C1146     Br1152   1.919   1_565  S
C1153      C1154   1.418       .  A
C1154     Br1170   1.923       .  S
C1155      C1156   1.400   1_554  A
C1155      H1159   1.084       .  S
C1156      C1160   1.479       .  S
C1157      C1158   1.398       .  A
C1157     Br1169   1.920       .  S
C1158      H1161   1.084       .  S
C1160      C1166   1.406       .  A
C1162      C1163   1.405       .  A
C1162      H1167   1.083       .  S
C1163     Br1171   1.921       .  S
C1164      C1165   1.405       .  A
C1165      C1166   1.393       .  A
C1165      H1168   1.083       .  S
C1166     Br1172   1.921       .  S
C1173      C1174   1.417       .  A
C1173      C1178   1.410       .  A
C1174      C1175   1.399       .  A
C1175      C1176   1.400       .  A
C1176      C1180   1.478       .  S
C1176      C1177   1.404       .  A
C1177      C1178   1.402       .  A
C1177     Br1189   1.918       .  S
C1178      H1181   1.083       .  S
C1180      C1182   1.400       .  A
C1180      C1186   1.403   1_565  A
C1182      C1183   1.401       .  A
C1182      H1187   1.085       .  S
C1183      C1184   1.419       .  A
C1183     Br1191   1.922       .  S
C1184      C1185   1.410       .  A
C1185      C1186   1.397   1_565  A
C1193      C1194   1.415       .  A
C1193      C1198   1.405       .  A
C1194      C1195   1.404       .  A
C1194     Br1210   1.920       .  S
C1195      C1196   1.403       .  A
C1195      H1199   1.083       .  S
C1196      C1200   1.479       .  S
C1196      C1197   1.406       .  A
C1197      C1198   1.396       .  A
C1200      C1202   1.401       .  A
C1200      C1206   1.407       .  A
C1202      C1203   1.403       .  A
C1203      C1204   1.418       .  A
C1204      C1205   1.405       .  A
C1205      C1206   1.399       .  A
C1205      H1208   1.083       .  S
C1206     Br1212   1.919       .  S
C1213      C1214   1.413       .  A
C1214     Br1230   1.918       .  S
C1215      C1216   1.401       .  A
C1215      H1219   1.083   1_556  S
C1216      C1220   1.483       .  S
C1216      C1217   1.409       .  A
C1217      C1218   1.402       .  A
C1217     Br1229   1.918       .  S
C1218      H1221   1.083       .  S
C1220      C1222   1.398       .  A
C1220      C1226   1.408       .  A
C1222      C1223   1.397       .  A
C1222      H1227   1.084       .  S
C1223      C1224   1.421       .  A
C1223     Br1231   1.924       .  S
C1224      C1225   1.409       .  A
C1225      C1226   1.406       .  A
C1225      H1228   1.083       .  S
C1226     Br1232   1.916   1_556  S
C1233      C1238   1.409   1_554  A
C1234     Br1250   1.923       .  S
C1235      C1236   1.400       .  A
C1235      H1239   1.084   1_556  S
C1236      C1240   1.482       .  S
C1236      C1237   1.405       .  A
C1237      C1238   1.399       .  A
C1237     Br1249   1.919       .  S
C1238      H1241   1.083       .  S
C1240      C1242   1.400       .  A
C1240      C1246   1.405       .  A
C1242      C1243   1.402       .  A
C1242      H1247   1.084       .  S
C1243      C1244   1.420       .  A
C1243     Br1251   1.922       .  S
C1244      C1245   1.411       .  A
C1245      C1246   1.401       .  A
C1245      H1248   1.083       .  S
C1246     Br1252   1.918       .  S
C1253      C1254   1.411       .  A
C1253      C1258   1.405       .  A
C1254      C1255   1.401       .  A
C1254     Br1270   1.917       .  S
C1255      C1256   1.401       .  A
C1255      H1259   1.082       .  S
C1256      C1260   1.479       .  S
C1256      C1257   1.409       .  A
C1257      C1258   1.399       .  A
C1257     Br1269   1.919       .  S
C1258      H1261   1.083       .  S
C1260      C1262   1.405       .  A
C1260      C1266   1.404       .  A
C1262      C1263   1.405       .  A
C1262      H1267   1.083       .  S
C1263      C1264   1.412       .  A
C1263     Br1271   1.919       .  S
C1264      C1265   1.406       .  A
C1265      C1266   1.393       .  A
C1265      H1268   1.083       .  S
C1266     Br1272   1.919       .  S
C1273      C1274   1.415       .  A
C1273      C1278   1.407       .  A
C1274      C1275   1.402       .  A
C1274     Br1290   1.921       .  S
C1275      C1276   1.402       .  A
C1275      H1279   1.084       .  S
C1276      C1280   1.481       .  S
C1276      C1277   1.406       .  A
C1277      C1278   1.400       .  A
C1277     Br1289   1.918       .  S
C1278      H1281   1.082       .  S
C1280      C1282   1.401       .  A
C1280      C1286   1.407       .  A
C1282      C1283   1.399       .  A
C1282      H1287   1.083       .  S
C1283      C1284   1.413       .  A
C1283     Br1291   1.921       .  S
C1284      C1285   1.407       .  A
C1285      C1286   1.402       .  A
C1285      H1288   1.083       .  S
C1286     Br1292   1.917       .  S
C1293      N1294   1.361       .  A
C1293      N1298   1.359       .  A
C1293      C1607   1.483       .  S
N1294      C1295   1.361       .  A
C1295      N1296   1.359       .  A
C1295      C1301   1.473       .  S
N1296      C1297   1.358       .  A
C1297      N1298   1.358       .  A
C1297      C1576   1.480       .  S
C1299      N1300   1.360       .  A
C1299      N1304   1.364       .  A
C1299      C1879   1.497       .  S
N1300      C1301   1.359       .  A
C1301      N1302   1.359       .  A
N1302      C1303   1.358       .  A
C1303      N1304   1.361       .  A
C1303      C1536   1.484       .  S
C1305      N1306   1.362       .  A
C1305      N1310   1.363       .  A
C1305      C1496   1.489       .  S
N1306      C1307   1.359       .  A
C1307      N1308   1.353       .  A
C1307      C1527   1.485       .  S
N1308      C1309   1.357       .  A
C1309      N1310   1.359       .  A
C1309      C1313   1.468       .  S
C1311      N1312   1.362       .  A
C1311      N1316   1.364       .  A
C1311      C1790   1.493       .  S
N1312      C1313   1.360       .  A
C1313      N1314   1.354       .  A
N1314      C1315   1.352       .  A
C1315      N1316   1.360       .  A
C1315      C1476   1.482       .  S
C1317      N1318   1.359       .  A
C1317      N1322   1.360       .  A
C1317      C1447   1.479       .  S
N1318      C1319   1.358       .  A
C1319      N1320   1.358       .  A
C1319      C1327   1.468       .  S
N1320      C1321   1.357       .  A
C1321      N1322   1.359       .  A
C1321      C1416   1.481       .  S
C1323      N1324   1.361       .  A
C1323      N1328   1.360       .  A
C1323      C1730   1.491       .  S
N1324      C1325   1.358       .  A
C1325      N1326   1.355       .  A
C1325      C1387   1.473       .  S
N1326      C1327   1.357       .  A
C1327      N1328   1.360       .  A
O1329     Mn1355   2.102       .  S
C1330      C1596   1.487       .  S
C1330      O1363   1.273       .  A
C1330      O1360   1.273       .  A
O1331     Mn1338   2.169       .  S
O1331     Mn1349   2.123       .  S
O1331     Mn1353   2.167       .  S
O1332     Mn1366   2.100       .  S
O1332      C1342   1.273       .  A
O1333     Mn1349   2.094       .  S
O1333      C1356   1.272       .  A
O1334     Mn1353   2.119       .  S
O1334      C1361   1.256       .  A
O1335     Mn2012   1.964       .  S
O1335     Mn1355   1.962       .  S
O1335      C1351   1.221       .  S
C1336      C1376   1.488       .  S
C1336      O1339   1.254       .  A
C1336      O1362   1.213       .  S
O1337     Mn2003   2.116       .  S
O1337     Mn1338   2.164       .  S
O1337     Mn1371   2.123       .  S
O1337     Mn1353   2.165       .  S
Mn1338     O2013   2.115       .  S
Mn1338     O1343   2.113       .  S
O1339     Mn1999   2.115   1_545  S
O1340     Mn1347   2.096       .  S
O1340      C1342   1.271       .  A
C1341      C1427   1.481       .  S
C1341      O1367   1.253       .  A
C1341      O1354   1.215       .  S
C1342      C1567   1.495       .  S
O1343      C1368   1.253       .  A
O1344     Mn1347   2.119       .  S
O1344     Mn1366   2.129       .  S
O1345     Mn1349   1.955       .  S
O1345     Mn1371   1.954       .  S
O1345      C1368   1.216       .  S
C1346      C1456   1.488       .  S
C1346      O2018   1.272       .  A
C1346      O1348   1.271       .  A
Mn1347     O1360   2.101       .  S
O1348     Mn1371   2.095       .  S
Mn1349     O1365   2.092       .  S
Mn1349     O1359   1.964       .  S
O1350     Mn1355   2.092       .  S
C1351      C1487   1.481       .  S
C1351      O1369   1.253       .  A
C1352      C1436   1.483       .  S
C1352      O1365   1.272       .  A
Mn1353     O1985   2.115       .  S
O1354     Mn1357   1.953       .  S
Mn1355     O1373   1.970       .  S
C1356      C1396   1.491       .  S
Mn1357     O1364   2.092   1_545  S
Mn1357     O1372   2.090   1_545  S
Mn1357     O1983   2.116   1_545  S
Mn1357     O1362   1.958       .  S
C1358      C1507   1.492       .  S
C1358      O2010   1.272       .  A
C1358      O1374   1.271       .  A
O1359     Mn1371   1.965       .  S
O1359      C1361   1.217       .  S
C1361      C1547   1.492       .  S
O1363     Mn1366   2.096       .  S
O1364      C2004   1.272       .  A
Mn1366     O1981   1.964   1_545  S
Mn1366     O2019   1.968   1_545  S
O1367     Mn1984   2.115   1_545  S
C1368      C1587   1.480       .  S
O1370      C1375   1.252       .  A
Mn1371     O1374   2.098       .  S
O1372      C1992   1.272       .  A
O1373     Mn2012   1.968       .  S
O1373      C1375   1.224       .  S
C1375      C1516   1.482       .  S
C1376      C1377   1.422       .  A
C1376      C1381   1.408       .  A
C1377      C1378   1.394       .  A
C1377     Br1393   1.926       .  S
C1378      C1379   1.398       .  A
C1378      H1382   1.084       .  S
C1379      C1383   1.482       .  S
C1379      C1380   1.408       .  A
C1380      C1381   1.403       .  A
C1380     Br1715   1.917       .  S
C1381      H1384   1.083       .  S
C1383      C1385   1.404       .  A
C1385      C1709   1.401       .  A
C1385      H1390   1.083       .  S
C1386      C1708   1.401   1_554  A
C1386      C1387   1.410       .  A
C1386     Br1394   1.918       .  S
C1387      C1711   1.401   1_654  A
C1388      C1710   1.401   1_455  A
C1389     Br1395   1.918       .  S
Br1392     C1703   1.917   1_554  S
C1396      C1401   1.411       .  A
C1397     Br1413   1.920       .  S
C1398      C1399   1.399   1_455  A
C1399      C1403   1.480       .  S
C1399      C1400   1.406       .  A
C1400      C1401   1.402       .  A
C1400     Br1412   1.919       .  S
C1401      H1404   1.083       .  S
C1403      C1405   1.401       .  A
C1403      C1409   1.405       .  A
C1405      C1729   1.404       .  A
C1405      H1733   1.084   1_655  S
C1406      C1728   1.404   1_554  A
C1406      C1730   1.419       .  A
C1407      C1646   1.491       .  S
C1407      C1729   1.419       .  A
C1407      C1408   1.408       .  A
C1408      C1409   1.397       .  A
C1408      H1411   1.083       .  S
C1409     Br1415   1.919       .  S
H1410      C1728   1.084   1_454  S
C1416      C1417   1.414       .  A
C1417      C1418   1.402       .  A
C1417     Br1433   1.919       .  S
C1418      C1419   1.401       .  A
C1418      H1422   1.083       .  S
C1419      C1423   1.478       .  S
C1420      C1421   1.397       .  A
C1420     Br1432   1.920       .  S
C1421      H1424   1.084       .  S
C1423      C1429   1.404       .  A
C1425      C1426   1.405       .  A
C1425      H1430   1.083       .  S
C1426     Br1434   1.919       .  S
C1427      C1428   1.407       .  A
C1428      C1429   1.392       .  A
C1428      H1431   1.082       .  S
C1429     Br1435   1.921       .  S
C1436      C1441   1.406       .  A
C1437      C1438   1.401       .  A
C1437     Br1453   1.921       .  S
C1438      H1442   1.084       .  S
C1439      C1443   1.476       .  S
C1439      C1440   1.404       .  A
C1440      C1441   1.396       .  A
C1440     Br1452   1.918       .  S
C1441      H1444   1.082       .  S
C1443      C1445   1.402       .  A
C1443      C1449   1.405   1_655  A
C1445      C1446   1.398       .  A
C1445      H1450   1.083       .  S
C1446      C1447   1.412       .  A
C1446     Br1454   1.920       .  S
C1447      C1448   1.407       .  A
C1448      C1449   1.401   1_655  A
C1456      C1457   1.419       .  A
C1456      C2107   1.409       .  A
C1457      C1458   1.402       .  A
C1457     Br1473   1.923       .  S
C1458      C1459   1.401       .  A
C1458      H1462   1.083       .  S
C1459      C1463   1.479       .  S
C1459      C2106   1.405       .  A
C1460      C2105   1.405   1_545  A
C1460      C1461   1.398       .  A
C1460     Br1472   1.918       .  S
C1461      C2102   1.409   1_545  A
C1461      H1464   1.083       .  S
C1463      C1465   1.400       .  A
C1463      C1469   1.405       .  A
C1465      C1789   1.403       .  A
C1465      H2439   1.083       .  S
C1466      C1788   1.403   1_554  A
C1466      C1790   1.420       .  A
C1466     Br2120   1.922       .  S
C1467      C1634   1.493       .  S
C1467      C1789   1.420       .  A
C1467      C1468   1.409       .  A
C1468      C1469   1.399       .  A
C1468      H1471   1.083       .  S
C1469     Br1475   1.919       .  S
H1470      C2434   1.083   1_554  S
Br1474     C2112   1.922       .  S
C1476      C1477   1.418       .  A
C1476      C2450   1.404   1_554  A
C1477      C1801   1.401       .  A
C1477     Br1493   1.923       .  S
C1478      C1800   1.401       .  A
C1478      C1479   1.400       .  A
C1478      H1482   1.084       .  S
C1479      C1483   1.479       .  S
C1479      C2126   1.408       .  A
C1480      C2125   1.408   1_545  A
C1480      C1481   1.398       .  A
C1480     Br1492   1.920       .  S
C1481      C2445   1.404   1_545  A
C1481      H1484   1.084       .  S
C1483      C2131   1.404       .  A
C1483      C1489   1.406       .  A
C1485      C2129   1.404       .  A
C1485      C1486   1.405       .  A
C1485      H1490   1.083   1_565  S
C1486      C2133   1.414       .  A
C1486     Br1494   1.921   1_565  S
C1487      C2132   1.414       .  A
C1487      C1488   1.405       .  A
C1488      C1489   1.393       .  A
C1488      H1491   1.083       .  S
C1489     Br1495   1.921       .  S
C1496      C1497   1.417       .  A
C1496      C1501   1.410       .  A
C1497      C1498   1.399       .  A
C1497     Br2159   1.922       .  S
C1498      C1499   1.400       .  A
C1498      H2148   1.084       .  S
C1499      C1503   1.478       .  S
C1499      C1500   1.404       .  A
C1500      C1501   1.402       .  A
C1500     Br1512   1.918       .  S
C1501      H1504   1.083       .  S
H1502      C2144   1.084   1_545  S
C1503      C1505   1.400       .  A
C1503      C1509   1.403       .  A
C1505      C1506   1.401       .  A
C1505      H1510   1.085       .  S
C1506      C1507   1.419       .  A
C1506     Br1514   1.922       .  S
C1507      C1508   1.410       .  A
C1508      C1509   1.397       .  A
C1508      H2157   1.082       .  S
C1509     Br2161   1.918       .  S
H1511      C2154   1.082   1_545  S
Br1513     C2143   1.922   1_545  S
Br1515     C2155   1.918       .  S
C1516      C1517   1.415       .  A
C1516      C1521   1.405       .  A
C1517      C1518   1.404       .  A
C1517     Br1533   1.920       .  S
C1518      C1519   1.403       .  A
C1518      H1522   1.083       .  S
C1519      C1523   1.479       .  S
C1519      C1520   1.406       .  A
C1520      C1521   1.396       .  A
C1520     Br2178   1.919       .  S
C1521      H2170   1.083       .  S
C1523      C1525   1.401       .  A
C1523      C1529   1.407       .  A
H1524      C2167   1.083   1_545  S
C1525      C1526   1.403       .  A
C1525      H2176   1.083       .  S
C1526      C1527   1.418       .  A
C1526     Br2180   1.921       .  S
C1527      C1528   1.405       .  A
C1528      C1529   1.399       .  A
C1528      H1531   1.083       .  S
C1529     Br1535   1.919       .  S
H1530      C2171   1.083   1_545  S
Br1532     C2166   1.919   1_545  S
Br1534     C2172   1.921   1_545  S
C1536      C1537   1.413       .  A
C1536      C1864   1.405   1_554  A
C1537      C1861   1.402   1_554  A
C1537     Br1553   1.918       .  S
C1538      C1860   1.402       .  A
C1538      C1539   1.401       .  A
C1538      H1542   1.083       .  S
C1539      C1543   1.483       .  S
C1539      C1540   1.409       .  A
C1540      C1541   1.402       .  A
C1540     Br1552   1.918       .  S
C1541      C1859   1.405       .  A
C1541      H1544   1.083       .  S
C1543      C1545   1.398       .  A
C1543      C1549   1.408       .  A
C1545      C1546   1.397       .  A
C1545      H1550   1.084       .  S
C1546      C1547   1.421       .  A
C1546     Br1554   1.924       .  S
C1547      C1548   1.409       .  A
C1548      C1549   1.406       .  A
C1548      H1551   1.083       .  S
C1549     Br1555   1.916       .  S
C1556      C1622   1.497       .  S
C1556      C1880   1.422       .  A
C1556      C1561   1.409       .  A
C1557      C1879   1.422       .  A
C1557      C1881   1.404   1_554  A
C1557     Br1573   1.923       .  S
C1558      C1880   1.404       .  A
C1558      C1559   1.400       .  A
C1558      H1562   1.084       .  S
C1559      C1563   1.482       .  S
C1559      C1560   1.405       .  A
C1560      C1561   1.399       .  A
C1560     Br1572   1.919       .  S
C1561      H1564   1.083       .  S
C1563      C1565   1.400       .  A
C1563      C1569   1.405       .  A
C1565      C1566   1.402       .  A
C1565      H1570   1.084       .  S
C1566      C1567   1.420       .  A
C1566     Br1574   1.922       .  S
C1567      C1568   1.411       .  A
C1568      C1569   1.401       .  A
C1568      H1571   1.083       .  S
C1569     Br1575   1.918       .  S
C1576      C1577   1.411       .  A
C1576      C1581   1.405       .  A
C1577      C1578   1.401       .  A
C1577     Br1593   1.917       .  S
C1578      C1579   1.401       .  A
C1578      H1582   1.082       .  S
C1579      C1583   1.479       .  S
C1579      C1580   1.409       .  A
C1580      C1581   1.399       .  A
C1580     Br1592   1.919       .  S
C1581      H1584   1.083       .  S
C1583      C1585   1.405       .  A
C1583      C1589   1.404       .  A
C1585      C1586   1.405       .  A
C1585      H1590   1.083       .  S
C1586      C1587   1.412       .  A
C1586     Br1594   1.919       .  S
C1587      C1588   1.406       .  A
C1588      C1589   1.393       .  A
C1588      H1591   1.083       .  S
C1589     Br1595   1.919       .  S
C1596      C1597   1.415       .  A
C1596      C1601   1.407       .  A
C1597      C1598   1.402       .  A
C1597     Br1613   1.921       .  S
C1598      C1599   1.402       .  A
C1598      H1602   1.084       .  S
C1599      C1603   1.481       .  S
C1599      C1600   1.406       .  A
C1600      C1601   1.400       .  A
C1600     Br1612   1.918       .  S
C1601      H1604   1.082       .  S
C1603      C1605   1.401       .  A
C1603      C1609   1.407       .  A
C1605      C1606   1.399       .  A
C1605      H1610   1.083       .  S
C1606      C1607   1.413       .  A
C1606     Br1614   1.921       .  S
C1607      C1608   1.407       .  A
C1608      C1609   1.402       .  A
C1608      H1611   1.083       .  S
C1609     Br1615   1.917       .  S
C1616      N1617   1.361       .  A
C1616      N1621   1.359       .  A
C1616      C1930   1.483       .  S
N1617      C1618   1.361       .  A
C1618      N1619   1.359       .  A
C1618      C1624   1.473       .  S
N1619      C1620   1.358       .  A
C1620      N1621   1.358       .  A
C1620      C1899   1.480       .  S
C1622      N1623   1.360       .  A
C1622      N1627   1.364       .  A
N1623      C1624   1.359       .  A
C1624      N1625   1.359       .  A
N1625      C1626   1.358       .  A
C1626      N1627   1.361       .  A
C1626      C1859   1.484       .  S
C1628      N1629   1.362       .  A
C1628      N1633   1.363       .  A
C1628      C1819   1.489       .  S
N1629      C1630   1.359       .  A
C1630      N1631   1.353       .  A
C1630      C1850   1.485       .  S
N1631      C1632   1.357       .  A
C1632      N1633   1.359       .  A
C1632      C1636   1.468       .  S
C1634      N1635   1.362       .  A
C1634      N1639   1.364       .  A
N1635      C1636   1.360       .  A
C1636      N1637   1.354       .  A
N1637      C1638   1.352       .  A
C1638      N1639   1.360       .  A
C1638      C1799   1.482       .  S
C1640      N1641   1.359       .  A
C1640      N1645   1.360       .  A
C1640      C1770   1.479       .  S
N1641      C1642   1.358       .  A
C1642      N1643   1.358       .  A
C1642      C1650   1.468       .  S
N1643      C1644   1.357       .  A
C1644      N1645   1.359       .  A
C1644      C1739   1.481       .  S
C1646      N1647   1.361       .  A
C1646      N1651   1.360       .  A
N1647      C1648   1.358       .  A
C1648      N1649   1.355       .  A
C1648      C1710   1.473       .  S
N1649      C1650   1.357       .  A
C1650      N1651   1.360       .  A
O1652     Mn1678   2.102       .  S
C1653      C1919   1.487       .  S
C1653      O1686   1.273       .  A
C1653      O1683   1.273       .  A
O1654     Mn1661   2.169       .  S
O1654     Mn1672   2.123       .  S
O1654     Mn1676   2.167       .  S
O1655     Mn1689   2.100       .  S
O1655      C1665   1.273       .  A
O1656     Mn1672   2.094       .  S
O1656      C1679   1.272       .  A
O1657     Mn1676   2.119       .  S
O1657      C1684   1.256       .  A
O1658     Mn2335   1.964       .  S
O1658     Mn1678   1.962       .  S
O1658      C1674   1.221       .  S
C1659      C1699   1.488       .  S
C1659      O1662   1.254       .  A
C1659      O1685   1.213       .  S
O1660     Mn2326   2.116       .  S
O1660     Mn1661   2.164       .  S
O1660     Mn1694   2.123       .  S
O1660     Mn1676   2.165       .  S
Mn1661     O2336   2.115       .  S
Mn1661     O1666   2.113       .  S
O1662     Mn2322   2.115   1_545  S
O1663     Mn1670   2.096       .  S
O1663      C1665   1.271       .  A
C1664      C1750   1.481       .  S
C1664      O1690   1.253       .  A
C1664      O1677   1.215       .  S
C1665      C1890   1.495       .  S
O1666      C1691   1.253       .  A
O1667     Mn1670   2.119       .  S
O1667     Mn1689   2.129       .  S
O1668     Mn1672   1.955       .  S
O1668     Mn1694   1.954       .  S
O1668      C1691   1.216       .  S
C1669      C1779   1.488       .  S
C1669      O2341   1.272       .  A
C1669      O1671   1.271       .  A
Mn1670     O1683   2.101       .  S
O1671     Mn1694   2.095       .  S
Mn1672     O1688   2.092       .  S
Mn1672     O1682   1.964       .  S
O1673     Mn1678   2.092       .  S
C1674      C1810   1.481       .  S
C1674      O1692   1.253       .  A
C1675      C1759   1.483       .  S
C1675      O1688   1.272       .  A
Mn1676     O2308   2.115       .  S
O1677     Mn1680   1.953       .  S
Mn1678     O1696   1.970       .  S
C1679      C1719   1.491       .  S
Mn1680     O1687   2.092   1_545  S
Mn1680     O1695   2.090   1_545  S
Mn1680     O2306   2.116   1_545  S
Mn1680     O1685   1.958       .  S
C1681      C1830   1.492       .  S
C1681      O2333   1.272       .  A
C1681      O1697   1.271       .  A
O1682     Mn1694   1.965       .  S
O1682      C1684   1.217       .  S
C1684      C1870   1.492       .  S
O1686     Mn1689   2.096       .  S
O1687      C2327   1.272       .  A
Mn1689     O2304   1.964   1_545  S
Mn1689     O2342   1.968   1_545  S
O1690     Mn2307   2.115   1_545  S
C1691      C1910   1.480       .  S
O1693      C1698   1.252       .  A
Mn1694     O1697   2.098       .  S
O1695      C2315   1.272       .  A
O1696     Mn2335   1.968       .  S
O1696      C1698   1.224       .  S
C1698      C1839   1.482       .  S
C1699      C1700   1.422       .  A
C1699      C1704   1.408       .  A
C1700      C1701   1.394       .  A
C1700     Br1716   1.926       .  S
C1701      C1702   1.398       .  A
C1701      H1705   1.084       .  S
C1702      C1706   1.482       .  S
C1702      C1703   1.408       .  A
C1703      C1704   1.403       .  A
C1704      H1707   1.083       .  S
C1706      C1708   1.404       .  A
C1708      H1713   1.083       .  S
C1709      C1710   1.410       .  A
C1709     Br1717   1.918       .  S
C1712     Br1718   1.918       .  S
C1719      C1724   1.411       .  A
C1720     Br1736   1.920       .  S
C1721      C1722   1.399   1_455  A
C1722      C1726   1.480       .  S
C1722      C1723   1.406       .  A
C1723      C1724   1.402       .  A
C1723     Br1735   1.919       .  S
C1724      H1727   1.083       .  S
C1726      C1728   1.401       .  A
C1726      C1732   1.405       .  A
C1730      C1731   1.408   1_554  A
C1731      C1732   1.397       .  A
C1731      H1734   1.083       .  S
C1732     Br1738   1.919       .  S
C1739      C1740   1.414       .  A
C1740      C1741   1.402       .  A
C1740     Br1756   1.919       .  S
C1741      C1742   1.401       .  A
C1741      H1745   1.083       .  S
C1742      C1746   1.478       .  S
C1743      C1744   1.397       .  A
C1743     Br1755   1.920       .  S
C1744      H1747   1.084       .  S
C1746      C1752   1.404       .  A
C1748      C1749   1.405       .  A
C1748      H1753   1.083       .  S
C1749     Br1757   1.919       .  S
C1750      C1751   1.407       .  A
C1751      C1752   1.392       .  A
C1751      H1754   1.082       .  S
C1752     Br1758   1.921       .  S
C1759      C1764   1.406       .  A
C1760      C1761   1.401       .  A
C1760     Br1776   1.921       .  S
C1761      H1765   1.084       .  S
C1762      C1766   1.476       .  S
C1762      C1763   1.404       .  A
C1763      C1764   1.396       .  A
C1763     Br1775   1.918       .  S
C1764      H1767   1.082       .  S
C1766      C1768   1.402       .  A
C1766      C1772   1.405   1_655  A
C1768      C1769   1.398       .  A
C1768      H1773   1.083       .  S
C1769      C1770   1.412       .  A
C1769     Br1777   1.920       .  S
C1770      C1771   1.407       .  A
C1771      C1772   1.401   1_655  A
C1779      C1780   1.419       .  A
C1779      C2430   1.409       .  A
C1780      C1781   1.402       .  A
C1780     Br1796   1.923       .  S
C1781      C1782   1.401       .  A
C1781      H1785   1.083       .  S
C1782      C1786   1.479       .  S
C1782      C2429   1.405       .  A
C1783      C2428   1.405   1_545  A
C1783      C1784   1.398       .  A
C1783     Br1795   1.918       .  S
C1784      C2425   1.409   1_545  A
C1784      H1787   1.083       .  S
C1786      C1788   1.400       .  A
C1786      C1792   1.405       .  A
C1788      H2116   1.083   1_556  S
C1789     Br2443   1.922       .  S
C1790      C1791   1.409   1_554  A
C1791      C1792   1.399       .  A
C1791      H1794   1.083       .  S
C1792     Br1798   1.919       .  S
H1793      C2111   1.083       .  S
Br1797     C2435   1.922       .  S
C1799      C1800   1.418       .  A
C1799      C2127   1.404       .  A
C1800     Br1816   1.923       .  S
C1801      C1802   1.400   1_554  A
C1801      H1805   1.084       .  S
C1802      C1806   1.479       .  S
C1802      C2449   1.408       .  A
C1803      C2448   1.408   1_545  A
C1803      C1804   1.398       .  A
C1803     Br1815   1.920       .  S
C1804      C2122   1.404   1_546  A
C1804      H1807   1.084       .  S
C1806      C2454   1.404       .  A
C1806      C1812   1.406       .  A
C1808      C2452   1.404       .  A
C1808      C1809   1.405       .  A
C1808      H1813   1.083   1_565  S
C1809      C2456   1.414       .  A
C1809     Br1817   1.921   1_565  S
C1810      C2455   1.414       .  A
C1810      C1811   1.405       .  A
C1811      C1812   1.393       .  A
C1811      H1814   1.083       .  S
C1812     Br1818   1.921       .  S
C1819      C1820   1.417       .  A
C1819      C1824   1.410       .  A
C1820      C1821   1.399       .  A
C1820     Br2482   1.922       .  S
C1821      C1822   1.400       .  A
C1821      H2471   1.084       .  S
C1822      C1826   1.478       .  S
C1822      C1823   1.404       .  A
C1823      C1824   1.402       .  A
C1823     Br1835   1.918       .  S
C1824      H1827   1.083       .  S
H1825      C2467   1.084   1_545  S
C1826      C1828   1.400       .  A
C1826      C1832   1.403       .  A
C1828      C1829   1.401       .  A
C1828      H1833   1.085       .  S
C1829      C1830   1.419       .  A
C1829     Br1837   1.922       .  S
C1830      C1831   1.410       .  A
C1831      C1832   1.397       .  A
C1831      H2480   1.082       .  S
C1832     Br2484   1.918       .  S
H1834      C2477   1.082   1_545  S
Br1836     C2466   1.922   1_545  S
Br1838     C2478   1.918       .  S
C1839      C1840   1.415       .  A
C1839      C1844   1.405       .  A
C1840      C1841   1.404       .  A
C1840     Br1856   1.920       .  S
C1841      C1842   1.403       .  A
C1841      H1845   1.083       .  S
C1842      C1846   1.479       .  S
C1842      C1843   1.406       .  A
C1843      C1844   1.396       .  A
C1843     Br2501   1.919       .  S
C1844      H2493   1.083       .  S
C1846      C1848   1.401       .  A
C1846      C1852   1.407       .  A
H1847      C2490   1.083   1_545  S
C1848      C1849   1.403       .  A
C1848      H2499   1.083       .  S
C1849      C1850   1.418       .  A
C1849     Br2503   1.921       .  S
C1850      C1851   1.405       .  A
C1851      C1852   1.399       .  A
C1851      H1854   1.083       .  S
C1852     Br1858   1.919       .  S
H1853      C2494   1.083   1_545  S
Br1855     C2489   1.919   1_545  S
Br1857     C2495   1.921   1_545  S
C1859      C1860   1.413       .  A
C1860     Br1876   1.918       .  S
C1861      C1862   1.401       .  A
C1861      H1865   1.083   1_556  S
C1862      C1866   1.483       .  S
C1862      C1863   1.409       .  A
C1863      C1864   1.402       .  A
C1863     Br1875   1.918       .  S
C1864      H1867   1.083       .  S
C1866      C1868   1.398       .  A
C1866      C1872   1.408       .  A
C1868      C1869   1.397       .  A
C1868      H1873   1.084       .  S
C1869      C1870   1.421       .  A
C1869     Br1877   1.924       .  S
C1870      C1871   1.409       .  A
C1871      C1872   1.406       .  A
C1871      H1874   1.083       .  S
C1872     Br1878   1.916   1_556  S
C1879      C1884   1.409   1_554  A
C1880     Br1896   1.923       .  S
C1881      C1882   1.400       .  A
C1881      H1885   1.084   1_556  S
C1882      C1886   1.482       .  S
C1882      C1883   1.405       .  A
C1883      C1884   1.399       .  A
C1883     Br1895   1.919       .  S
C1884      H1887   1.083       .  S
C1886      C1888   1.400       .  A
C1886      C1892   1.405       .  A
C1888      C1889   1.402       .  A
C1888      H1893   1.084       .  S
C1889      C1890   1.420       .  A
C1889     Br1897   1.922       .  S
C1890      C1891   1.411       .  A
C1891      C1892   1.401       .  A
C1891      H1894   1.083       .  S
C1892     Br1898   1.918       .  S
C1899      C1900   1.411       .  A
C1899      C1904   1.405       .  A
C1900      C1901   1.401       .  A
C1900     Br1916   1.917       .  S
C1901      C1902   1.401       .  A
C1901      H1905   1.082       .  S
C1902      C1906   1.479       .  S
C1902      C1903   1.409       .  A
C1903      C1904   1.399       .  A
C1903     Br1915   1.919       .  S
C1904      H1907   1.083       .  S
C1906      C1908   1.405       .  A
C1906      C1912   1.404       .  A
C1908      C1909   1.405       .  A
C1908      H1913   1.083       .  S
C1909      C1910   1.412       .  A
C1909     Br1917   1.919       .  S
C1910      C1911   1.406       .  A
C1911      C1912   1.393       .  A
C1911      H1914   1.083       .  S
C1912     Br1918   1.919       .  S
C1919      C1920   1.415       .  A
C1919      C1924   1.407       .  A
C1920      C1921   1.402       .  A
C1920     Br1936   1.921       .  S
C1921      C1922   1.402       .  A
C1921      H1925   1.084       .  S
C1922      C1926   1.481       .  S
C1922      C1923   1.406       .  A
C1923      C1924   1.400       .  A
C1923     Br1935   1.918       .  S
C1924      H1927   1.082       .  S
C1926      C1928   1.401       .  A
C1926      C1932   1.407       .  A
C1928      C1929   1.399       .  A
C1928      H1933   1.083       .  S
C1929      C1930   1.413       .  A
C1929     Br1937   1.921       .  S
C1930      C1931   1.407       .  A
C1931      C1932   1.402       .  A
C1931      H1934   1.083       .  S
C1932     Br1938   1.917       .  S
C1939      N1940   1.361       .  A
C1939      N1944   1.359       .  A
C1939      C2253   1.483       .  S
N1940      C1941   1.361       .  A
C1941      N1942   1.359       .  A
C1941      C1947   1.473       .  S
N1942      C1943   1.358       .  A
C1943      N1944   1.358       .  A
C1943      C2222   1.480       .  S
C1945      N1946   1.360       .  A
C1945      N1950   1.364       .  A
C1945      C2525   1.497       .  S
N1946      C1947   1.359       .  A
C1947      N1948   1.359       .  A
N1948      C1949   1.358       .  A
C1949      N1950   1.361       .  A
C1949      C2182   1.484       .  S
C1951      N1952   1.362       .  A
C1951      N1956   1.363       .  A
C1951      C2142   1.489       .  S
N1952      C1953   1.359       .  A
C1953      N1954   1.353       .  A
C1953      C2173   1.485       .  S
N1954      C1955   1.357       .  A
C1955      N1956   1.359       .  A
C1955      C1959   1.468       .  S
C1957      N1958   1.362       .  A
C1957      N1962   1.364       .  A
C1957      C2436   1.493       .  S
N1958      C1959   1.360       .  A
C1959      N1960   1.354       .  A
N1960      C1961   1.352       .  A
C1961      N1962   1.360       .  A
C1961      C2122   1.482       .  S
C1963      N1964   1.359       .  A
C1963      N1968   1.360       .  A
C1963      C2093   1.479       .  S
N1964      C1965   1.358       .  A
C1965      N1966   1.358       .  A
C1965      C1973   1.468       .  S
N1966      C1967   1.357       .  A
C1967      N1968   1.359       .  A
C1967      C2062   1.481       .  S
C1969      N1970   1.361       .  A
C1969      N1974   1.360       .  A
C1969      C2376   1.491       .  S
N1970      C1971   1.358       .  A
C1971      N1972   1.355       .  A
C1971      C2033   1.473       .  S
N1972      C1973   1.357       .  A
C1973      N1974   1.360       .  A
O1975     Mn2001   2.102       .  S
C1976      C2242   1.487       .  S
C1976      O2009   1.273       .  A
C1976      O2006   1.273       .  A
O1977     Mn1984   2.169       .  S
O1977     Mn1995   2.123       .  S
O1977     Mn1999   2.167       .  S
O1978     Mn2012   2.100       .  S
O1978      C1988   1.273       .  A
O1979     Mn1995   2.094       .  S
O1979      C2002   1.272       .  A
O1980     Mn1999   2.119       .  S
O1980      C2007   1.256       .  A
O1981     Mn2001   1.962       .  S
O1981      C1997   1.221       .  S
C1982      C2022   1.488       .  S
C1982      O1985   1.254       .  A
C1982      O2008   1.213       .  S
O1983     Mn1984   2.164       .  S
O1983     Mn2017   2.123       .  S
O1983     Mn1999   2.165       .  S
Mn1984     O1989   2.113       .  S
O1986     Mn1993   2.096       .  S
O1986      C1988   1.271       .  A
C1987      C2073   1.481       .  S
C1987      O2013   1.253       .  A
C1987      O2000   1.215       .  S
C1988      C2213   1.495       .  S
O1989      C2014   1.253       .  A
O1990     Mn1993   2.119       .  S
O1990     Mn2012   2.129       .  S
O1991     Mn1995   1.955       .  S
O1991     Mn2017   1.954       .  S
O1991      C2014   1.216       .  S
C1992      C2102   1.488       .  S
C1992      O1994   1.271       .  A
Mn1993     O2006   2.101       .  S
O1994     Mn2017   2.095       .  S
Mn1995     O2011   2.091       .  S
Mn1995     O2005   1.964       .  S
O1996     Mn2001   2.092       .  S
C1997      C2133   1.481       .  S
C1997      O2015   1.253       .  A
C1998      C2082   1.483       .  S
C1998      O2011   1.272       .  A
O2000     Mn2003   1.953       .  S
Mn2001     O2019   1.970       .  S
C2002      C2042   1.491       .  S
Mn2003     O2010   2.092       .  S
Mn2003     O2018   2.090       .  S
Mn2003     O2008   1.958       .  S
C2004      C2153   1.492       .  S
C2004      O2020   1.271       .  A
O2005     Mn2017   1.965       .  S
O2005      C2007   1.217       .  S
C2007      C2193   1.492       .  S
O2009     Mn2012   2.096       .  S
C2014      C2233   1.480       .  S
O2016      C2021   1.252       .  A
Mn2017     O2020   2.098       .  S
O2019      C2021   1.224       .  S
C2021      C2162   1.482       .  S
C2022      C2023   1.422       .  A
C2022      C2027   1.408       .  A
C2023      C2024   1.394       .  A
C2023     Br2039   1.926       .  S
C2024      C2025   1.398       .  A
C2024      H2028   1.084       .  S
C2025      C2029   1.482       .  S
C2025      C2026   1.408       .  A
C2026      C2027   1.403       .  A
C2026     Br2361   1.917       .  S
C2027      H2030   1.083       .  S
C2029      C2031   1.404       .  A
C2031      C2355   1.401       .  A
C2031      H2036   1.083       .  S
C2032      C2354   1.401   1_554  A
C2032      C2033   1.410       .  A
C2032     Br2040   1.918       .  S
C2033      C2357   1.401   1_654  A
C2034      C2356   1.401   1_455  A
C2035     Br2041   1.918       .  S
Br2038     C2349   1.917   1_554  S
C2042      C2047   1.411       .  A
C2043     Br2059   1.920       .  S
C2044      C2045   1.399   1_455  A
C2045      C2049   1.480       .  S
C2045      C2046   1.406       .  A
C2046      C2047   1.402       .  A
C2046     Br2058   1.919       .  S
C2047      H2050   1.083       .  S
C2049      C2051   1.401       .  A
C2049      C2055   1.405       .  A
C2051      C2375   1.404       .  A
C2051      H2379   1.084   1_655  S
C2052      C2374   1.404   1_554  A
C2052      C2376   1.419       .  A
C2053      C2292   1.491       .  S
C2053      C2375   1.419       .  A
C2053      C2054   1.408       .  A
C2054      C2055   1.397       .  A
C2054      H2057   1.083       .  S
C2055     Br2061   1.919       .  S
H2056      C2374   1.084   1_454  S
C2062      C2063   1.414       .  A
C2063      C2064   1.402       .  A
C2063     Br2079   1.919       .  S
C2064      C2065   1.401       .  A
C2064      H2068   1.083       .  S
C2065      C2069   1.478       .  S
C2066      C2067   1.397       .  A
C2066     Br2078   1.920       .  S
C2067      H2070   1.084       .  S
C2069      C2075   1.404       .  A
C2071      C2072   1.405       .  A
C2071      H2076   1.083       .  S
C2072     Br2080   1.919       .  S
C2073      C2074   1.407       .  A
C2074      C2075   1.392       .  A
C2074      H2077   1.082       .  S
C2075     Br2081   1.921       .  S
C2082      C2087   1.406       .  A
C2083      C2084   1.401       .  A
C2083     Br2099   1.921       .  S
C2084      H2088   1.084       .  S
C2085      C2089   1.476       .  S
C2085      C2086   1.404       .  A
C2086      C2087   1.396       .  A
C2086     Br2098   1.918       .  S
C2087      H2090   1.082       .  S
C2089      C2091   1.402       .  A
C2089      C2095   1.405   1_655  A
C2091      C2092   1.398       .  A
C2091      H2096   1.083       .  S
C2092      C2093   1.412       .  A
C2092     Br2100   1.920       .  S
C2093      C2094   1.407       .  A
C2094      C2095   1.401   1_655  A
C2102      C2103   1.419       .  A
C2103      C2104   1.402       .  A
C2103     Br2119   1.923       .  S
C2104      C2105   1.401       .  A
C2104      H2108   1.083       .  S
C2105      C2109   1.479       .  S
C2106      C2107   1.398       .  A
C2106     Br2118   1.918       .  S
C2107      H2110   1.083       .  S
C2109      C2111   1.400       .  A
C2109      C2115   1.405       .  A
C2111      C2435   1.403       .  A
C2112      C2434   1.403   1_554  A
C2112      C2436   1.420       .  A
C2113      C2280   1.493       .  S
C2113      C2435   1.420       .  A
C2113      C2114   1.409       .  A
C2114      C2115   1.399       .  A
C2114      H2117   1.083   1_565  S
C2115     Br2121   1.919   1_565  S
C2122      C2123   1.418       .  A
C2123      C2447   1.401       .  A
C2123     Br2139   1.923       .  S
C2124      C2446   1.401       .  A
C2124      C2125   1.400       .  A
C2124      H2128   1.084       .  S
C2125      C2129   1.479       .  S
C2126      C2127   1.398       .  A
C2126     Br2138   1.920       .  S
C2127      H2130   1.084       .  S
C2129      C2135   1.406       .  A
C2131      C2132   1.405       .  A
C2131      H2136   1.083       .  S
C2132     Br2140   1.921       .  S
C2133      C2134   1.405       .  A
C2134      C2135   1.393       .  A
C2134      H2137   1.083       .  S
C2135     Br2141   1.921       .  S
C2142      C2143   1.417       .  A
C2142      C2147   1.410       .  A
C2143      C2144   1.399       .  A
C2144      C2145   1.400       .  A
C2145      C2149   1.478       .  S
C2145      C2146   1.404       .  A
C2146      C2147   1.402       .  A
C2146     Br2158   1.918       .  S
C2147      H2150   1.083       .  S
C2149      C2151   1.400       .  A
C2149      C2155   1.403   1_565  A
C2151      C2152   1.401       .  A
C2151      H2156   1.085       .  S
C2152      C2153   1.419       .  A
C2152     Br2160   1.922       .  S
C2153      C2154   1.410       .  A
C2154      C2155   1.397   1_565  A
C2162      C2163   1.415       .  A
C2162      C2167   1.405       .  A
C2163      C2164   1.404       .  A
C2163     Br2179   1.920       .  S
C2164      C2165   1.403       .  A
C2164      H2168   1.083       .  S
C2165      C2169   1.479       .  S
C2165      C2166   1.406       .  A
C2166      C2167   1.396       .  A
C2169      C2171   1.401       .  A
C2169      C2175   1.407       .  A
C2171      C2172   1.403       .  A
C2172      C2173   1.418       .  A
C2173      C2174   1.405       .  A
C2174      C2175   1.399       .  A
C2174      H2177   1.083       .  S
C2175     Br2181   1.919       .  S
C2182      C2183   1.413       .  A
C2182      C2510   1.405   1_554  A
C2183      C2507   1.402   1_554  A
C2183     Br2199   1.918       .  S
C2184      C2506   1.402       .  A
C2184      C2185   1.401       .  A
C2184      H2188   1.083       .  S
C2185      C2189   1.483       .  S
C2185      C2186   1.409       .  A
C2186      C2187   1.402       .  A
C2186     Br2198   1.918       .  S
C2187      C2505   1.405       .  A
C2187      H2190   1.083       .  S
C2189      C2191   1.398       .  A
C2189      C2195   1.408       .  A
C2191      C2192   1.397       .  A
C2191      H2196   1.084       .  S
C2192      C2193   1.421       .  A
C2192     Br2200   1.924       .  S
C2193      C2194   1.409       .  A
C2194      C2195   1.406       .  A
C2194      H2197   1.083       .  S
C2195     Br2201   1.916       .  S
C2202      C2268   1.497       .  S
C2202      C2526   1.422       .  A
C2202      C2207   1.409       .  A
C2203      C2525   1.422       .  A
C2203      C2527   1.404   1_554  A
C2203     Br2219   1.923       .  S
C2204      C2526   1.404       .  A
C2204      C2205   1.400       .  A
C2204      H2208   1.084       .  S
C2205      C2209   1.482       .  S
C2205      C2206   1.405       .  A
C2206      C2207   1.399       .  A
C2206     Br2218   1.919       .  S
C2207      H2210   1.083       .  S
C2209      C2211   1.400       .  A
C2209      C2215   1.405       .  A
C2211      C2212   1.402       .  A
C2211      H2216   1.084       .  S
C2212      C2213   1.420       .  A
C2212     Br2220   1.922       .  S
C2213      C2214   1.411       .  A
C2214      C2215   1.401       .  A
C2214      H2217   1.083       .  S
C2215     Br2221   1.918       .  S
C2222      C2223   1.411       .  A
C2222      C2227   1.405       .  A
C2223      C2224   1.401       .  A
C2223     Br2239   1.917       .  S
C2224      C2225   1.401       .  A
C2224      H2228   1.082       .  S
C2225      C2229   1.479       .  S
C2225      C2226   1.409       .  A
C2226      C2227   1.399       .  A
C2226     Br2238   1.919       .  S
C2227      H2230   1.083       .  S
C2229      C2231   1.405       .  A
C2229      C2235   1.404       .  A
C2231      C2232   1.405       .  A
C2231      H2236   1.083       .  S
C2232      C2233   1.412       .  A
C2232     Br2240   1.919       .  S
C2233      C2234   1.406       .  A
C2234      C2235   1.393       .  A
C2234      H2237   1.083       .  S
C2235     Br2241   1.919       .  S
C2242      C2243   1.415       .  A
C2242      C2247   1.407       .  A
C2243      C2244   1.402       .  A
C2243     Br2259   1.921       .  S
C2244      C2245   1.402       .  A
C2244      H2248   1.084       .  S
C2245      C2249   1.481       .  S
C2245      C2246   1.406       .  A
C2246      C2247   1.400       .  A
C2246     Br2258   1.918       .  S
C2247      H2250   1.082       .  S
C2249      C2251   1.401       .  A
C2249      C2255   1.407       .  A
C2251      C2252   1.399       .  A
C2251      H2256   1.083       .  S
C2252      C2253   1.413       .  A
C2252     Br2260   1.921       .  S
C2253      C2254   1.407       .  A
C2254      C2255   1.402       .  A
C2254      H2257   1.083       .  S
C2255     Br2261   1.917       .  S
C2262      N2263   1.361       .  A
C2262      N2267   1.359       .  A
C2262      C2576   1.483       .  S
N2263      C2264   1.361       .  A
C2264      N2265   1.359       .  A
C2264      C2270   1.473       .  S
N2265      C2266   1.358       .  A
C2266      N2267   1.358       .  A
C2266      C2545   1.480       .  S
C2268      N2269   1.360       .  A
C2268      N2273   1.364       .  A
N2269      C2270   1.359       .  A
C2270      N2271   1.359       .  A
N2271      C2272   1.358       .  A
C2272      N2273   1.361       .  A
C2272      C2505   1.484       .  S
C2274      N2275   1.362       .  A
C2274      N2279   1.363       .  A
C2274      C2465   1.489       .  S
N2275      C2276   1.359       .  A
C2276      N2277   1.353       .  A
C2276      C2496   1.485       .  S
N2277      C2278   1.357       .  A
C2278      N2279   1.359       .  A
C2278      C2282   1.468       .  S
C2280      N2281   1.362       .  A
C2280      N2285   1.364       .  A
N2281      C2282   1.360       .  A
C2282      N2283   1.354       .  A
N2283      C2284   1.352       .  A
C2284      N2285   1.360       .  A
C2284      C2445   1.482       .  S
C2286      N2287   1.359       .  A
C2286      N2291   1.360       .  A
C2286      C2416   1.479       .  S
N2287      C2288   1.358       .  A
C2288      N2289   1.358       .  A
C2288      C2296   1.468       .  S
N2289      C2290   1.357       .  A
C2290      N2291   1.359       .  A
C2290      C2385   1.481       .  S
C2292      N2293   1.361       .  A
C2292      N2297   1.360       .  A
N2293      C2294   1.358       .  A
C2294      N2295   1.355       .  A
C2294      C2356   1.473       .  S
N2295      C2296   1.357       .  A
C2296      N2297   1.360       .  A
O2298     Mn2324   2.102       .  S
C2299      C2565   1.487       .  S
C2299      O2332   1.273       .  A
C2299      O2329   1.273       .  A
O2300     Mn2307   2.169       .  S
O2300     Mn2318   2.123       .  S
O2300     Mn2322   2.167       .  S
O2301     Mn2335   2.100       .  S
O2301      C2311   1.273       .  A
O2302     Mn2318   2.094       .  S
O2302      C2325   1.272       .  A
O2303     Mn2322   2.119       .  S
O2303      C2330   1.256       .  A
O2304     Mn2324   1.962       .  S
O2304      C2320   1.221       .  S
C2305      C2345   1.488       .  S
C2305      O2308   1.254       .  A
C2305      O2331   1.213       .  S
O2306     Mn2307   2.164       .  S
O2306     Mn2340   2.123       .  S
O2306     Mn2322   2.165       .  S
Mn2307     O2312   2.113       .  S
O2309     Mn2316   2.096       .  S
O2309      C2311   1.271       .  A
C2310      C2396   1.481       .  S
C2310      O2336   1.253       .  A
C2310      O2323   1.215       .  S
C2311      C2536   1.495       .  S
O2312      C2337   1.253       .  A
O2313     Mn2316   2.119       .  S
O2313     Mn2335   2.129       .  S
O2314     Mn2318   1.955       .  S
O2314     Mn2340   1.954       .  S
O2314      C2337   1.216       .  S
C2315      C2425   1.488       .  S
C2315      O2317   1.271       .  A
Mn2316     O2329   2.101       .  S
O2317     Mn2340   2.095       .  S
Mn2318     O2334   2.092       .  S
Mn2318     O2328   1.964       .  S
O2319     Mn2324   2.092       .  S
C2320      C2456   1.481       .  S
C2320      O2338   1.253       .  A
C2321      C2405   1.483       .  S
C2321      O2334   1.272       .  A
O2323     Mn2326   1.953       .  S
Mn2324     O2342   1.970       .  S
C2325      C2365   1.491       .  S
Mn2326     O2333   2.092       .  S
Mn2326     O2341   2.090       .  S
Mn2326     O2331   1.958       .  S
C2327      C2476   1.492       .  S
C2327      O2343   1.271       .  A
O2328     Mn2340   1.965       .  S
O2328      C2330   1.217       .  S
C2330      C2516   1.492       .  S
O2332     Mn2335   2.096       .  S
C2337      C2556   1.480       .  S
O2339      C2344   1.252       .  A
Mn2340     O2343   2.098       .  S
O2342      C2344   1.224       .  S
C2344      C2485   1.482       .  S
C2345      C2346   1.422       .  A
C2345      C2350   1.408       .  A
C2346      C2347   1.394       .  A
C2346     Br2362   1.926       .  S
C2347      C2348   1.398       .  A
C2347      H2351   1.084       .  S
C2348      C2352   1.482       .  S
C2348      C2349   1.408       .  A
C2349      C2350   1.403       .  A
C2350      H2353   1.083       .  S
C2352      C2354   1.404       .  A
C2354      H2359   1.083       .  S
C2355      C2356   1.410       .  A
C2355     Br2363   1.918       .  S
C2358     Br2364   1.918       .  S
C2365      C2370   1.411       .  A
C2366     Br2382   1.920       .  S
C2367      C2368   1.399   1_455  A
C2368      C2372   1.480       .  S
C2368      C2369   1.406       .  A
C2369      C2370   1.402       .  A
C2369     Br2381   1.919       .  S
C2370      H2373   1.083       .  S
C2372      C2374   1.401       .  A
C2372      C2378   1.405       .  A
C2376      C2377   1.408   1_554  A
C2377      C2378   1.397       .  A
C2377      H2380   1.083       .  S
C2378     Br2384   1.919       .  S
C2385      C2386   1.414       .  A
C2386      C2387   1.402       .  A
C2386     Br2402   1.919       .  S
C2387      C2388   1.401       .  A
C2387      H2391   1.083       .  S
C2388      C2392   1.478       .  S
C2389      C2390   1.397       .  A
C2389     Br2401   1.920       .  S
C2390      H2393   1.084       .  S
C2392      C2398   1.404       .  A
C2394      C2395   1.405       .  A
C2394      H2399   1.083       .  S
C2395     Br2403   1.919       .  S
C2396      C2397   1.407       .  A
C2397      C2398   1.392       .  A
C2397      H2400   1.082       .  S
C2398     Br2404   1.921       .  S
C2405      C2410   1.406       .  A
C2406      C2407   1.401       .  A
C2406     Br2422   1.921       .  S
C2407      H2411   1.084       .  S
C2408      C2412   1.476       .  S
C2408      C2409   1.404       .  A
C2409      C2410   1.396       .  A
C2409     Br2421   1.918       .  S
C2410      H2413   1.082       .  S
C2412      C2414   1.402       .  A
C2412      C2418   1.405   1_655  A
C2414      C2415   1.398       .  A
C2414      H2419   1.083       .  S
C2415      C2416   1.412       .  A
C2415     Br2423   1.920       .  S
C2416      C2417   1.407       .  A
C2417      C2418   1.401   1_655  A
C2425      C2426   1.419       .  A
C2426      C2427   1.402       .  A
C2426     Br2442   1.923       .  S
C2427      C2428   1.401       .  A
C2427      H2431   1.083       .  S
C2428      C2432   1.479       .  S
C2429      C2430   1.398       .  A
C2429     Br2441   1.918       .  S
C2430      H2433   1.083       .  S
C2432      C2434   1.400       .  A
C2432      C2438   1.405       .  A
C2436      C2437   1.409   1_554  A
C2437      C2438   1.399       .  A
C2437      H2440   1.083   1_565  S
C2438     Br2444   1.919   1_565  S
C2445      C2446   1.418       .  A
C2446     Br2462   1.923       .  S
C2447      C2448   1.400   1_554  A
C2447      H2451   1.084       .  S
C2448      C2452   1.479       .  S
C2449      C2450   1.398       .  A
C2449     Br2461   1.920       .  S
C2450      H2453   1.084       .  S
C2452      C2458   1.406       .  A
C2454      C2455   1.405       .  A
C2454      H2459   1.083       .  S
C2455     Br2463   1.921       .  S
C2456      C2457   1.405       .  A
C2457      C2458   1.393       .  A
C2457      H2460   1.083       .  S
C2458     Br2464   1.921       .  S
C2465      C2466   1.417       .  A
C2465      C2470   1.410       .  A
C2466      C2467   1.399       .  A
C2467      C2468   1.400       .  A
C2468      C2472   1.478       .  S
C2468      C2469   1.404       .  A
C2469      C2470   1.402       .  A
C2469     Br2481   1.918       .  S
C2470      H2473   1.083       .  S
C2472      C2474   1.400       .  A
C2472      C2478   1.403   1_565  A
C2474      C2475   1.401       .  A
C2474      H2479   1.085       .  S
C2475      C2476   1.419       .  A
C2475     Br2483   1.922       .  S
C2476      C2477   1.410       .  A
C2477      C2478   1.397   1_565  A
C2485      C2486   1.415       .  A
C2485      C2490   1.405       .  A
C2486      C2487   1.404       .  A
C2486     Br2502   1.920       .  S
C2487      C2488   1.403       .  A
C2487      H2491   1.083       .  S
C2488      C2492   1.479       .  S
C2488      C2489   1.406       .  A
C2489      C2490   1.396       .  A
C2492      C2494   1.401       .  A
C2492      C2498   1.407       .  A
C2494      C2495   1.403       .  A
C2495      C2496   1.418       .  A
C2496      C2497   1.405       .  A
C2497      C2498   1.399       .  A
C2497      H2500   1.083       .  S
C2498     Br2504   1.919       .  S
C2505      C2506   1.413       .  A
C2506     Br2522   1.918       .  S
C2507      C2508   1.401       .  A
C2507      H2511   1.083   1_556  S
C2508      C2512   1.483       .  S
C2508      C2509   1.409       .  A
C2509      C2510   1.402       .  A
C2509     Br2521   1.918       .  S
C2510      H2513   1.083       .  S
C2512      C2514   1.398       .  A
C2512      C2518   1.408       .  A
C2514      C2515   1.397       .  A
C2514      H2519   1.084       .  S
C2515      C2516   1.421       .  A
C2515     Br2523   1.924       .  S
C2516      C2517   1.409       .  A
C2517      C2518   1.406       .  A
C2517      H2520   1.083       .  S
C2518     Br2524   1.916   1_556  S
C2525      C2530   1.409   1_554  A
C2526     Br2542   1.923       .  S
C2527      C2528   1.400       .  A
C2527      H2531   1.084   1_556  S
C2528      C2532   1.482       .  S
C2528      C2529   1.405       .  A
C2529      C2530   1.399       .  A
C2529     Br2541   1.919       .  S
C2530      H2533   1.083       .  S
C2532      C2534   1.400       .  A
C2532      C2538   1.405       .  A
C2534      C2535   1.402       .  A
C2534      H2539   1.084       .  S
C2535      C2536   1.420       .  A
C2535     Br2543   1.922       .  S
C2536      C2537   1.411       .  A
C2537      C2538   1.401       .  A
C2537      H2540   1.083       .  S
C2538     Br2544   1.918       .  S
C2545      C2546   1.411       .  A
C2545      C2550   1.405       .  A
C2546      C2547   1.401       .  A
C2546     Br2562   1.917       .  S
C2547      C2548   1.401       .  A
C2547      H2551   1.082       .  S
C2548      C2552   1.479       .  S
C2548      C2549   1.409       .  A
C2549      C2550   1.399       .  A
C2549     Br2561   1.919       .  S
C2550      H2553   1.083       .  S
C2552      C2554   1.405       .  A
C2552      C2558   1.404       .  A
C2554      C2555   1.405       .  A
C2554      H2559   1.083       .  S
C2555      C2556   1.412       .  A
C2555     Br2563   1.919       .  S
C2556      C2557   1.406       .  A
C2557      C2558   1.393       .  A
C2557      H2560   1.083       .  S
C2558     Br2564   1.919       .  S
C2565      C2566   1.415       .  A
C2565      C2570   1.407       .  A
C2566      C2567   1.402       .  A
C2566     Br2582   1.921       .  S
C2567      C2568   1.402       .  A
C2567      H2571   1.084       .  S
C2568      C2572   1.481       .  S
C2568      C2569   1.406       .  A
C2569      C2570   1.400       .  A
C2569     Br2581   1.918       .  S
C2570      H2573   1.082       .  S
C2572      C2574   1.401       .  A
C2572      C2578   1.407       .  A
C2574      C2575   1.399       .  A
C2574      H2579   1.083       .  S
C2575      C2576   1.413       .  A
C2575     Br2583   1.921       .  S
C2576      C2577   1.407       .  A
C2577      C2578   1.402       .  A
C2577      H2580   1.083       .  S
C2578     Br2584   1.917       .  S
