geometry optimzed in LAMMPS
_audit_creation_date              2020-11-30 
_audit_creation_method            'lammps2cif' 
_symmetry_space_group_name_H-M    'P1' 
_symmetry_Int_Tables_number       1 
_symmetry_cell_setting            triclinic 
loop_ 
_symmetry_equiv_pos_as_xyz 
  x,y,z 
_cell_length_a                    45.95244451 
_cell_length_b                    46.35148627304794 
_cell_length_c                    46.23069129249049 
_cell_angle_alpha                 90.05663162899064 
_cell_angle_beta                  89.9784113271232 
_cell_angle_gamma                 90.00610412258351 
loop_ 
_atom_site_label 
_atom_site_type_symbol 
_atom_site_fract_x 
_atom_site_fract_y 
_atom_site_fract_z 
_atom_site_charge 
O1          O  0.95743672  0.99533997  0.94577253    -0.77600
C2          C  0.03388536  0.94539352  0.94530252     0.83500
O3          O  0.95979953  0.95899522  0.04348920    -0.78700
O4          O  0.06460006  0.97858437  0.02876922    -0.80200
O5          O  0.02895447  0.06266970  0.97614695    -0.80000
O6          O  0.96082461  0.04231102  0.95506273    -0.78600
Zn7        Zn  0.98165290  0.97373402  0.97367316     1.55700
O8          O  0.06466763  0.03000689  0.97900662    -0.80000
Cd9        Cd  0.99170754  0.04048287  0.98851458     1.59700
Cd10       Cd  0.99198988  0.99145057  0.04022372     1.59600
O11         O  0.97677230  0.06237883  0.02493931    -0.80000
O12         O  0.00248689  0.99944942  0.99850812    -1.90500
Cd13       Cd  0.04483555  0.99186949  0.99094487     1.59900
O14         O  0.97814595  0.02956057  0.06029631    -0.80000
O15         O  0.05246033  0.96070901  0.95883792    -0.78600
C16         C  0.94943543  0.94378718  0.02284696     0.83900
C17         C  0.95074451  0.02133741  0.94024473     0.83600
O18         O  0.00680128  0.94814285  0.94967003    -0.77600
C19         C  0.05573332  0.05563734  0.97436146     0.84400
O20         O  0.95662428  0.94808340  0.99670346    -0.77700
C21         C  0.97373780  0.05530465  0.05144660     0.84500
C22         C  0.05595534  0.97484897  0.05471319     0.84800
O23         O  0.02943222  0.97834639  0.06225559    -0.80100
O24         O  0.99910979  0.30314284  0.29750103    -0.77600
C25         C  0.93805322  0.29934455  0.22816764     0.83500
O26         O  0.95946566  0.20345771  0.29131816    -0.78700
O27         O  0.97579152  0.22316839  0.18588156    -0.80200
O28         O  0.05964155  0.27586730  0.21874165    -0.80000
O29         O  0.04550050  0.29266812  0.28869532    -0.78600
Zn30       Zn  0.97592524  0.27373644  0.27564230     1.55700
O31         O  0.02370005  0.27708796  0.18617577    -0.80000
Cd32       Cd  0.04046546  0.26098041  0.25657569     1.59700
Cd33       Cd  0.98949578  0.20945544  0.25736754     1.59600
O34         O  0.06223486  0.22360008  0.26836808    -0.80000
O35         O  0.99852369  0.25122198  0.24927723    -1.90500
Cd36       Cd  0.98774772  0.26066685  0.20806215     1.59900
O37         O  0.02788617  0.18931807  0.26888163    -0.80000
O38         O  0.95293915  0.28982550  0.20689621    -0.78600
C39         C  0.95070829  0.22275103  0.30898336     0.83900
C40         C  0.02606714  0.30743323  0.30172405     0.83600
O41         O  0.94474338  0.29376471  0.25424078    -0.77600
C42         C  0.05031090  0.28074822  0.19322664     0.84400
O43         O  0.95691807  0.24919425  0.30540316    -0.77700
C44         C  0.05423849  0.19745987  0.27184559     0.84500
C45         C  0.97206700  0.19701300  0.19369139     0.84800
O46         O  0.97531927  0.18897390  0.21990210    -0.80100
O47         O  0.75586095  0.30136953  0.45496685    -0.77600
C48         C  0.80312899  0.30725953  0.53322779     0.83500
O49         O  0.79427613  0.20658417  0.46155184    -0.78700
O50         O  0.77081554  0.22328620  0.56472365    -0.80200
O51         O  0.68694509  0.27555345  0.52762790    -0.80000
O52         O  0.70823896  0.29354852  0.45904447    -0.78600
Zn53       Zn  0.77789651  0.27604366  0.48109799     1.55700
O54         O  0.72004712  0.27384656  0.56297062    -0.80000
Cd55       Cd  0.70973428  0.26112489  0.49100701     1.59700
Cd56       Cd  0.76060616  0.21049236  0.49223849     1.59600
O57         O  0.68895241  0.22342462  0.47683760    -0.80000
O58         O  0.75138421  0.25195423  0.50190312    -1.90500
Cd59       Cd  0.75815147  0.26034217  0.54394332     1.59900
O60         O  0.72330341  0.18925110  0.47782036    -0.80000
O61         O  0.78915274  0.29226160  0.55159512    -0.78600
C62         C  0.81078424  0.22654715  0.45196964     0.83900
C63         C  0.72974567  0.30727051  0.44822059     0.83600
O64         O  0.80047305  0.30311693  0.50623673    -0.77600
C65         C  0.69427874  0.27874591  0.55410343     0.84400
O66         O  0.80657316  0.25287752  0.45852267    -0.77700
C67         C  0.69707428  0.19723129  0.47346189     0.84500
C68         C  0.77572098  0.19757951  0.55633321     0.84800
O69         O  0.77346515  0.18978664  0.52993154    -0.80100
O70         O  0.80379204  0.99879787  0.79195248    -0.77600
C71         C  0.72444185  0.95016825  0.80600326     0.83500
O72         O  0.79137605  0.96263426  0.70150468    -0.78700
O73         O  0.68733062  0.97745937  0.72045041    -0.80200
O74         O  0.72044850  0.06280456  0.77415566    -0.80000
O75         O  0.79116849  0.04514649  0.79134084    -0.78600
Zn76       Zn  0.77426658  0.97586280  0.77083256     1.55700
O77         O  0.68597440  0.02899937  0.77052349    -0.80000
Cd78       Cd  0.75802508  0.04207780  0.76045853     1.59700
Cd79       Cd  0.75916085  0.99390369  0.70767211     1.59600
O80         O  0.77103831  0.06455596  0.72416458    -0.80000
O81         O  0.74962603  0.00090384  0.74927207    -1.90500
Cd82       Cd  0.70768843  0.99165198  0.75794760     1.59900
O83         O  0.77209745  0.03193149  0.68852658    -0.80000
O84         O  0.70378435  0.96113460  0.79122326    -0.78600
C85         C  0.80226781  0.94524130  0.71986314     0.83900
C86         C  0.80791870  0.02481517  0.79955122     0.83600
O87         O  0.75099579  0.95504039  0.80012658    -0.77600
C88         C  0.69392415  0.05487742  0.77572313     0.84400
O89         O  0.79611633  0.94686940  0.74662833    -0.77700
C90         C  0.77509763  0.05765157  0.69778129     0.84500
C91         C  0.69589402  0.97528465  0.69427444     0.84800
O92         O  0.72198739  0.98063154  0.68657872    -0.80100
O93         O  0.30388668  0.95624764  0.25559348    -0.77600
C94         C  0.30201272  0.03032151  0.30890122     0.83500
O95         O  0.20449045  0.96243973  0.29349022    -0.78700
O96         O  0.22382867  0.06496466  0.27079069    -0.80200
O97         O  0.27360682  0.02718201  0.18822182    -0.80000
O98         O  0.29399034  0.95995826  0.20857752    -0.78600
Zn99       Zn  0.27460853  0.97876711  0.27800198     1.55700
O100        O  0.27538867  0.06261546  0.22097603    -0.80000
Cd101      Cd  0.26063306  0.99075831  0.21097880     1.59700
Cd102      Cd  0.20964854  0.99353610  0.26113574     1.59600
O103        O  0.22309812  0.97670438  0.19014617    -0.80000
O104        O  0.25160999  0.00157487  0.25225609    -1.90500
Cd105      Cd  0.26141592  0.04343684  0.25899712     1.59900
O106        O  0.18850859  0.98011788  0.22398871    -0.80000
O107        O  0.29228196  0.04958146  0.29180347    -0.78600
C108        C  0.22380866  0.94842757  0.30740385     0.83900
C109        C  0.30931306  0.95001899  0.22930951     0.83600
O110        O  0.29591387  0.00381404  0.30560890    -0.77600
C111        C  0.27801536  0.05348869  0.19508371     0.84400
O112        O  0.25083015  0.95210292  0.30281141    -0.77700
C113        C  0.19656861  0.97488674  0.19811044     0.84500
C114        C  0.19755866  0.05739820  0.27546209     0.84800
O115        O  0.18911989  0.03126310  0.27366187    -0.80100
O116        O  0.05190753  0.54642627  0.50462370    -0.77600
C117        C  0.97476257  0.55360605  0.55850984     0.83500
O118        O  0.03557034  0.45171935  0.54166712    -0.78700
O119        O  0.93280783  0.47784479  0.52194042    -0.80200
O120        O  0.97433312  0.52616200  0.43837711    -0.80000
O121        O  0.04449679  0.53942182  0.45758690    -0.78600
Zn122      Zn  0.02396421  0.52242734  0.52693451     1.55700
O123        O  0.93820739  0.52968779  0.47059457    -0.80000
Cd124      Cd  0.00986353  0.50997324  0.46043438     1.59700
Cd125      Cd  0.00406262  0.45923081  0.51002424     1.59600
O126        O  0.02079459  0.47185604  0.43926191    -0.80000
O127        O  0.99858043  0.50144106  0.50159484    -1.90500
Cd128      Cd  0.95692108  0.51378702  0.50877418     1.59900
O129        O  0.01577898  0.43724211  0.47251847    -0.80000
O130        O  0.95433355  0.54456503  0.54214932    -0.78600
C131        C  0.05077447  0.46992342  0.55571413     0.83900
C132        C  0.05851073  0.55110472  0.47832810     0.83600
O133        O  0.00115857  0.54653219  0.55431790    -0.77600
C134        C  0.94807252  0.53229441  0.44486988     0.84400
O135        O  0.04832411  0.49686821  0.55168695    -0.77700
C136        C  0.02141724  0.44536952  0.44673532     0.84500
C137        C  0.93948158  0.45165178  0.52748061     0.84800
O138        O  0.96530710  0.44201250  0.52469324    -0.80100
O139        O  0.44098984  0.29455958  0.74715862    -0.77600
C140        C  0.44803401  0.22740464  0.80751857     0.83500
O141        O  0.54197372  0.29370999  0.78788428    -0.78700
O142        O  0.52582459  0.18904906  0.76896659    -0.80200
O143        O  0.47441300  0.22180673  0.68611464    -0.80000
O144        O  0.45321755  0.28968650  0.70091630    -0.78600
Zn145      Zn  0.47238179  0.27582308  0.77021136     1.55700
O146        O  0.47184990  0.18846474  0.72101603    -0.80000
Cd147      Cd  0.48709192  0.25983794  0.70589022     1.59700
Cd148      Cd  0.53807563  0.26091397  0.75646634     1.59600
O149        O  0.52395031  0.27461169  0.68467379    -0.80000
O150        O  0.49636067  0.25134735  0.74745418    -1.90500
Cd151      Cd  0.48735434  0.20986357  0.75753430     1.59900
O152        O  0.55848306  0.27465386  0.71875684    -0.80000
O153        O  0.45786464  0.20658395  0.79231081    -0.78600
C154        C  0.52182889  0.31045065  0.79683333     0.83900
C155        C  0.43648729  0.29960232  0.72053810     0.83600
O156        O  0.45326611  0.25350462  0.80105806    -0.77600
C157        C  0.46929856  0.19610986  0.69460762     0.84400
O158        O  0.49538605  0.30643148  0.78982134    -0.77700
C159        C  0.55019531  0.27866505  0.69271892     0.84500
C160        C  0.55207584  0.19740193  0.77237049     0.84800
O161        O  0.55969910  0.22372157  0.76933652    -0.80100
O162        O  0.79345550  0.74563739  0.94283359    -0.77600
C163        C  0.72530424  0.80805053  0.94603207     0.83500
O164        O  0.79175238  0.79226640  0.04024220    -0.78700
O165        O  0.68637400  0.77284723  0.02456330    -0.80200
O166        O  0.71735731  0.68820731  0.97843097    -0.80000
O167        O  0.78708834  0.70075694  0.95870917    -0.78600
Zn168      Zn  0.77360995  0.77090586  0.97177663     1.55700
O169        O  0.68461441  0.72355020  0.97352478    -0.80000
Cd170      Cd  0.75592704  0.70793344  0.99072754     1.59700
Cd171      Cd  0.75847980  0.76087181  0.03837441     1.59600
O172        O  0.76968812  0.68847889  0.02864590    -0.80000
O173        O  0.74870632  0.75000035  0.99720410    -1.90500
Cd174      Cd  0.70718828  0.76009434  0.98713002     1.59900
O175        O  0.77217349  0.72421783  0.06103308    -0.80000
O176        O  0.70413116  0.79394583  0.95690539    -0.78600
C177        C  0.80837857  0.80022264  0.01958590     0.83900
C178        C  0.79833414  0.71872016  0.94111539     0.83600
O179        O  0.75154857  0.80092898  0.95081204    -0.77600
C180        C  0.69166444  0.69693123  0.97262052     0.84400
O181        O  0.80409311  0.79189647  0.99372877    -0.77700
C182        C  0.77476642  0.69762226  0.05416596     0.84500
C183        C  0.69421614  0.77727127  0.05064653     0.84800
O184        O  0.72062467  0.77484585  0.05893324    -0.80100
O185        O  0.29918092  0.25429515  0.95304900    -0.77600
C186        C  0.22686327  0.31210441  0.95033173     0.83500
O187        O  0.29304447  0.28834536  0.05051859    -0.78700
O188        O  0.18671615  0.27596527  0.02795989    -0.80200
O189        O  0.22032791  0.19197723  0.97617680    -0.80000
O190        O  0.29119929  0.20750200  0.96024783    -0.78600
Zn191      Zn  0.27504924  0.27740272  0.97959398     1.55700
O192        O  0.18660474  0.22674834  0.97598946    -0.80000
Cd193      Cd  0.25796086  0.21141229  0.99113508     1.59700
Cd194      Cd  0.25778174  0.26036619  0.04336374     1.59600
O195        O  0.26937922  0.18870660  0.02824756    -0.80000
O196        O  0.24975247  0.25296749  0.00119616    -1.90500
Cd197      Cd  0.20847341  0.26310585  0.99073568     1.59900
O198        O  0.26808275  0.22176374  0.06344709    -0.80000
O199        O  0.20621393  0.29634832  0.95990153    -0.78600
C200        C  0.30979232  0.29914316  0.03140899     0.83900
C201        C  0.30488167  0.22800970  0.94787729     0.83600
O202        O  0.25326681  0.30745125  0.95720131    -0.77600
C203        C  0.19426707  0.20054929  0.97225440     0.84400
O204        O  0.30461793  0.29622356  0.00460390    -0.77700
C205        C  0.27182729  0.19589322  0.05478148     0.84500
C206        C  0.19430026  0.27967119  0.05425502     0.84800
O207        O  0.22035472  0.27573717  0.06297348    -0.80100
O208        O  0.75400831  0.46121014  0.30741661    -0.77600
C209        C  0.80103934  0.44431130  0.22827310     0.83500
O210        O  0.79159333  0.55098725  0.29085251    -0.78700
O211        O  0.77385101  0.52965253  0.18853000    -0.80200
O212        O  0.68873541  0.47680495  0.22498691    -0.80000
O213        O  0.70720938  0.46196495  0.29511780    -0.78600
Zn214      Zn  0.77670094  0.48144478  0.27696000     1.55700
O215        O  0.72271537  0.47890098  0.19045058    -0.80000
Cd216      Cd  0.70985660  0.49235809  0.26165571     1.59700
Cd217      Cd  0.75910109  0.54476325  0.25972949     1.59600
O218        O  0.68784832  0.52932852  0.27458632    -0.80000
O219        O  0.75139354  0.50288761  0.25221068    -1.90500
Cd220      Cd  0.76035758  0.49294944  0.21077043     1.59900
O221        O  0.72128387  0.56441453  0.27386276    -0.80000
O222        O  0.79073417  0.45937927  0.20760485    -0.78600
C223        C  0.80912021  0.53275732  0.30192228     0.83900
C224        C  0.72777875  0.45359737  0.31160903     0.83600
O225        O  0.79637026  0.45063133  0.25459793    -0.77600
C226        C  0.69677236  0.47370907  0.19872631     0.84400
O227        O  0.80701291  0.50587738  0.29678902    -0.77700
C228        C  0.69534476  0.55562480  0.27810162     0.84500
C229        C  0.77608214  0.55619947  0.19566586     0.84800
O230        O  0.77141103  0.56498192  0.22143469    -0.80100
O231        O  0.45098896  0.94880018  0.50210946    -0.77600
C232        C  0.44259569  0.02670544  0.44999247     0.83500
O233        O  0.54371898  0.95718703  0.45661165    -0.78700
O234        O  0.53100393  0.06171284  0.47603695    -0.80200
O235        O  0.47925122  0.02871733  0.56193085    -0.80000
O236        O  0.46029771  0.96022986  0.54775846    -0.78600
Zn237      Zn  0.47431439  0.97609824  0.47786032     1.55700
O238        O  0.47984225  0.06301934  0.52799990    -0.80000
Cd239      Cd  0.49213214  0.99162291  0.54100980     1.59700
Cd240      Cd  0.54208714  0.98977795  0.48855670     1.59600
O241        O  0.52969359  0.97778263  0.56055197    -0.80000
O242        O  0.50058797  0.99988000  0.49927160    -1.90500
Cd243      Cd  0.49289210  0.04175476  0.49030219     1.59900
O244        O  0.56351508  0.97578700  0.52574849    -0.80000
O245        O  0.45959208  0.04628048  0.45955139    -0.78600
C246        C  0.52212946  0.94445693  0.44478364     0.83900
C247        C  0.44700852  0.94508058  0.52899169     0.83600
O248        O  0.44621975  0.00022531  0.45615312    -0.77600
C249        C  0.47575414  0.05481143  0.55405095     0.84400
O250        O  0.49604806  0.95106962  0.45101743    -0.77700
C251        C  0.55560902  0.97288535  0.55207964     0.84500
C252        C  0.55699965  0.05305066  0.47149724     0.84800
O253        O  0.56436695  0.02663012  0.47454192    -0.80100
O254        O  0.99870017  0.69490189  0.70847327    -0.77600
C255        C  0.04974662  0.77432675  0.69373131     0.83500
O256        O  0.03780050  0.70868150  0.79704092    -0.78700
O257        O  0.02066827  0.81164941  0.77971210    -0.80200
O258        O  0.93610714  0.77931231  0.72479117    -0.80000
O259        O  0.95242210  0.70900630  0.70972304    -0.78600
Zn260      Zn  0.02225247  0.72546411  0.72791682     1.55700
O261        O  0.97063322  0.81318243  0.72665975    -0.80000
Cd262      Cd  0.95632148  0.74229212  0.73987827     1.59700
Cd263      Cd  0.00514295  0.74011669  0.79241008     1.59600
O264        O  0.93385579  0.72968289  0.77634618    -0.80000
O265        O  0.99787974  0.75000617  0.75065455    -1.90500
Cd266      Cd  0.00758195  0.79140932  0.74176405     1.59900
O267        O  0.96679094  0.72558549  0.81169243    -0.80000
O268        O  0.04019453  0.79444869  0.71003952    -0.78600
C269        C  0.05541544  0.69905260  0.77798785     0.83900
C270        C  0.97214138  0.69145874  0.70159158     0.83600
O271        O  0.04281475  0.74807511  0.69765273    -0.77600
C272        C  0.94449021  0.80531770  0.72146879     0.84400
O273        O  0.05283722  0.70549266  0.75141561    -0.77700
C274        C  0.94070161  0.72373371  0.80238402     0.84500
C275        C  0.02327399  0.80344285  0.80594566     0.84800
O276        O  0.01836194  0.77747502  0.81387201    -0.80100
O277        O  0.45294555  0.79992426  0.24960236    -0.77600
C278        C  0.44169314  0.72024607  0.29980617     0.83500
O279        O  0.54327586  0.79096083  0.28918178    -0.78700
O280        O  0.52881667  0.68744731  0.27209308    -0.80200
O281        O  0.47386250  0.71954586  0.18644946    -0.80000
O282        O  0.45826269  0.79062147  0.20271736    -0.78600
Zn283      Zn  0.47359891  0.77045977  0.27255134     1.55700
O284        O  0.47807482  0.68522614  0.22020915    -0.80000
Cd285      Cd  0.48862001  0.75681069  0.20675257     1.59700
Cd286      Cd  0.53994084  0.75878496  0.25737033     1.59600
O287        O  0.52648990  0.76872129  0.18524149    -0.80000
O288        O  0.49838372  0.74811970  0.24839056    -1.90500
Cd289      Cd  0.49093871  0.70657134  0.25760923     1.59900
O290        O  0.56062576  0.77147028  0.21963805    -0.80000
O291        O  0.45886239  0.70136140  0.28928883    -0.78600
C292        C  0.52277109  0.79984265  0.30550082     0.83900
C293        C  0.44781844  0.80579400  0.22329255     0.83600
O294        O  0.44408212  0.74684529  0.29369988    -0.77600
C295        C  0.47221918  0.69322900  0.19444958     0.84400
O296        O  0.49657297  0.79200150  0.30167086    -0.77700
C297        C  0.55263054  0.77342649  0.19327379     0.84500
C298        C  0.55463568  0.69649055  0.27645896     0.84800
O299        O  0.56203543  0.72269088  0.27229055    -0.80100
O300        O  0.19825884  0.74836135  0.54654906    -0.77600
C301        C  0.19972109  0.69280336  0.47579458     0.83500
O302        O  0.29787227  0.70861216  0.53717939    -0.78700
O303        O  0.27450363  0.73158103  0.43551223    -0.80200
O304        O  0.22895714  0.81500555  0.47460620    -0.80000
O305        O  0.20842563  0.79514058  0.54288133    -0.78600
Zn306      Zn  0.22808269  0.72621222  0.52504622     1.55700
O307        O  0.22321534  0.78126761  0.44044398    -0.80000
Cd308      Cd  0.24176986  0.79230456  0.51156038     1.59700
Cd309      Cd  0.29211034  0.74095069  0.50615419     1.59600
O310        O  0.27995924  0.81173309  0.52620415    -0.80000
O311        O  0.25007469  0.75098698  0.50047632    -1.90500
Cd312      Cd  0.23816920  0.74350339  0.45928505     1.59900
O313        O  0.31392102  0.77771320  0.51962601    -0.80000
O314        O  0.20758336  0.71002352  0.45575547    -0.78600
C315        C  0.27930580  0.69819563  0.55479735     0.83900
C316        C  0.19291323  0.77453005  0.55279321     0.83600
O317        O  0.20736444  0.69659504  0.50191676    -0.77600
C318        C  0.22244221  0.80751385  0.44879748     0.84400
O319        O  0.25252771  0.70483683  0.55360053    -0.77700
C320        C  0.30641616  0.80328931  0.52671306     0.84500
C321        C  0.30098099  0.72607116  0.44168962     0.84800
O322        O  0.31077234  0.72765370  0.46744451    -0.80100
O323        O  0.28918490  0.44377977  0.74638576    -0.77600
C324        C  0.31040287  0.52116077  0.79631872     0.83500
O325        O  0.20219856  0.46405154  0.79369362    -0.78700
O326        O  0.22499445  0.56436099  0.77093394    -0.80200
O327        O  0.27059234  0.52816341  0.68427122    -0.80000
O328        O  0.28691938  0.45736142  0.70044158    -0.78600
Zn329      Zn  0.27191446  0.47499683  0.76992320     1.55700
O330        O  0.27343420  0.56168534  0.71896982    -0.80000
Cd331      Cd  0.25695193  0.49131050  0.70610006     1.59700
Cd332      Cd  0.20667093  0.49349295  0.75888147     1.59600
O333        O  0.21819611  0.47851512  0.68752583    -0.80000
O334        O  0.24874884  0.50051303  0.74785026    -1.90500
Cd335      Cd  0.26103035  0.54117866  0.75697398     1.59900
O336        O  0.18434544  0.47867848  0.72242518    -0.80000
O337        O  0.29546484  0.54260223  0.78733561    -0.78600
C338        C  0.22295887  0.45286546  0.80820791     0.83900
C339        C  0.29521461  0.43971619  0.71990703     0.83600
O340        O  0.30389835  0.49546211  0.78939145    -0.77600
C341        C  0.27541196  0.55402126  0.69252561     0.84400
O342        O  0.24930515  0.45661575  0.80097569    -0.77700
C343        C  0.19210551  0.47466122  0.69617139     0.84500
C344        C  0.19809552  0.55834254  0.77440118     0.84800
O345        O  0.18806390  0.53283714  0.77106724    -0.80100
O346        O  0.50136873  0.44936827  0.95043681    -0.77600
C347        C  0.45296392  0.43558712  0.03001290     0.83500
O348        O  0.45538174  0.53800454  0.96035952    -0.78700
O349        O  0.47656480  0.52325222  0.06460359    -0.80200
O350        O  0.56510164  0.47755835  0.02789458    -0.80000
O351        O  0.54807513  0.45929100  0.95748264    -0.78600
Zn352      Zn  0.47703528  0.46975935  0.97901111     1.55700
O353        O  0.53153668  0.47674572  0.06297755    -0.80000
Cd354      Cd  0.54215059  0.48983384  0.99108781     1.59700
Cd355      Cd  0.48728553  0.53679996  0.99278937     1.59600
O356        O  0.55968609  0.52914991  0.97812747    -0.80000
O357        O  0.49982876  0.49596160  0.00151246    -1.90500
Cd358      Cd  0.49237366  0.48705596  0.04338496     1.59900
O359        O  0.52307306  0.56092595  0.97944482    -0.80000
O360        O  0.46355457  0.45245093  0.04911242    -0.78600
C361        C  0.44301913  0.51678074  0.94776337     0.83900
C362        C  0.52789694  0.44638971  0.94358447     0.83600
O363        O  0.45716542  0.43971827  0.00314483    -0.77600
C364        C  0.55775600  0.47406981  0.05431534     0.84400
O365        O  0.44871679  0.49078806  0.95438286    -0.77700
C366        C  0.54980519  0.55472935  0.97520756     0.84500
C367        C  0.47029903  0.54882516  0.05653880     0.84800
O368        O  0.47224499  0.55683104  0.03020998    -0.80100
C369        C  0.40080210  0.51051120  0.88554776     0.30700
C370        C  0.38948111  0.49560326  0.86187590    -0.35700
C371        C  0.36980272  0.51083124  0.84476152     0.16700
C372        C  0.36140746  0.53886261  0.85037025     0.22500
C373        C  0.37341700  0.55416790  0.87394418    -0.33800
C374        C  0.39345514  0.53883184  0.89122070     0.16600
O375        O  0.41851395  0.49957781  0.90486340    -0.25800
C376        C  0.42313439  0.52105877  0.92328677     0.06400
C377        C  0.40828868  0.54626133  0.91589900    -0.30700
O378        O  0.34018664  0.54751706  0.83293269    -0.22500
C379        C  0.33536563  0.52460999  0.81606649    -0.02500
C380        C  0.35346980  0.50146284  0.82239945    -0.16900
H381        H  0.39492570  0.47331911  0.85764627     0.21000
H382        H  0.36690867  0.57599438  0.87901009     0.19400
H383        H  0.40810262  0.56669365  0.92721489     0.19400
H384        H  0.35314316  0.47999073  0.81320645     0.15200
C385        C  0.28596723  0.61718087  0.65221777     0.30700
C386        C  0.28536377  0.64703891  0.64729435    -0.35700
C387        C  0.28847642  0.65581513  0.61844114     0.16700
C388        C  0.29214622  0.63657200  0.59592648     0.22500
C389        C  0.29274501  0.60665903  0.60086354    -0.33800
C390        C  0.28939107  0.59785963  0.62974041     0.16600
O391        O  0.28161405  0.60429371  0.67726039    -0.25800
C392        C  0.28218128  0.57630362  0.67083869     0.06400
C393        C  0.28688606  0.57099847  0.64154419    -0.30700
O394        O  0.29184912  0.64938034  0.57042856    -0.22500
C395        C  0.28814597  0.67716760  0.57673238    -0.02500
C396        C  0.28571266  0.68239294  0.60623304    -0.16900
H397        H  0.28157985  0.66229026  0.66459790     0.21000
H398        H  0.29448151  0.59131905  0.58331535     0.19400
H399        H  0.28734690  0.55043302  0.63046255     0.19400
H400        H  0.28040242  0.70250278  0.61689902     0.15200
C401        C  0.46040750  0.63012022  0.15437444     0.30700
C402        C  0.46099679  0.60026146  0.14938415    -0.35700
C403        C  0.45925125  0.59154539  0.12037607     0.16700
C404        C  0.45695898  0.61086584  0.09778964     0.22500
C405        C  0.45584603  0.64073077  0.10282560    -0.33800
C406        C  0.45776059  0.64946028  0.13184374     0.16600
O407        O  0.46463537  0.64299191  0.17947407    -0.25800
C408        C  0.46459438  0.67096713  0.17302278     0.06400
C409        C  0.46025282  0.67628220  0.14370239    -0.30700
O410        O  0.45888614  0.59819334  0.07228396    -0.22500
C411        C  0.46234269  0.57038072  0.07858920    -0.02500
C412        C  0.46249431  0.56497853  0.10820309    -0.16900
H413        H  0.46409497  0.58496661  0.16677755     0.21000
H414        H  0.45507206  0.65612182  0.08526466     0.19400
H415        H  0.46063311  0.69680055  0.13255624     0.19400
H416        H  0.46662841  0.54475371  0.11913891     0.15200
C417        C  0.37787353  0.71445916  0.33992383     0.30700
C418        C  0.34891947  0.72123753  0.34657590    -0.35700
C419        C  0.34060357  0.71733705  0.37544376     0.16700
C420        C  0.35952692  0.70769241  0.39649668     0.22500
C421        C  0.38836413  0.70014337  0.38966840    -0.33800
C422        C  0.39663778  0.70376331  0.36062244     0.16600
O423        O  0.39101823  0.71992415  0.31522047    -0.25800
C424        C  0.41840225  0.71191117  0.31975332     0.06400
C425        C  0.42322593  0.70155197  0.34758490    -0.30700
O426        O  0.34793064  0.70865977  0.42263063    -0.22500
C427        C  0.32113980  0.71866627  0.41809906    -0.02500
C428        C  0.31534574  0.72420725  0.38912435    -0.16900
H429        H  0.33430653  0.73031134  0.33065722     0.21000
H430        H  0.40363219  0.69325055  0.40607025     0.19400
H431        H  0.44378945  0.69596796  0.35751324     0.19400
H432        H  0.29596716  0.73363474  0.37977400     0.15200
C433        C  0.14119255  0.79454857  0.60541649     0.30700
C434        C  0.12987130  0.80867357  0.63005831    -0.35700
C435        C  0.10489927  0.79608687  0.64261710     0.16700
C436        C  0.09230738  0.77137753  0.63156443     0.22500
C437        C  0.10325904  0.75764851  0.60702226    -0.33800
C438        C  0.12791630  0.77008191  0.59466696     0.16600
O439        O  0.16558210  0.80077544  0.59133441    -0.25800
C440        C  0.16757545  0.77984080  0.57156500     0.06400
C441        C  0.14467208  0.76038457  0.57272780    -0.30700
O442        O  0.07095097  0.76160435  0.64761314    -0.22500
C443        C  0.06921066  0.78029636  0.66927807    -0.02500
C444        C  0.08967838  0.80247287  0.66736613    -0.16900
H445        H  0.14035019  0.82739933  0.63936907     0.21000
H446        H  0.09387576  0.73785881  0.59881630     0.19400
H447        H  0.14161011  0.74095566  0.56007162     0.19400
H448        H  0.09389167  0.81953770  0.68279283     0.15200
C449        C  0.13912555  0.60361208  0.79145274     0.30700
C450        C  0.11037534  0.61046224  0.79933814    -0.35700
C451        C  0.10171888  0.63920688  0.79484690     0.16700
C452        C  0.11997980  0.65961087  0.78288053     0.22500
C453        C  0.14890617  0.65297180  0.77572910    -0.33800
C454        C  0.15766493  0.62440837  0.78065937     0.16600
O455        O  0.15101578  0.57763871  0.79148192    -0.25800
C456        C  0.17771067  0.58199491  0.78110805     0.06400
C457        C  0.18307288  0.61072683  0.77419566    -0.30700
O458        O  0.10641203  0.68397157  0.77696976    -0.22500
C459        C  0.07928120  0.67952524  0.78601409    -0.02500
C460        C  0.07509609  0.65208705  0.79748470    -0.16900
H461        H  0.09544443  0.59425370  0.80729245     0.21000
H462        H  0.16320694  0.66866069  0.76582141     0.19400
H463        H  0.20227194  0.61984493  0.76417317     0.19400
H464        H  0.05483081  0.64222789  0.80416299     0.15200
C465        C  0.54191730  0.89149993  0.39336268     0.30700
C466        C  0.55833923  0.87722609  0.37179235    -0.35700
C467        C  0.54426338  0.85410359  0.35754775     0.16700
C468        C  0.51624978  0.84583049  0.36447187     0.22500
C469        C  0.50018301  0.85972120  0.38585752    -0.33800
C470        C  0.51394819  0.88265899  0.39961073     0.16600
O471        O  0.54959125  0.91453509  0.40872026    -0.25800
C472        C  0.52589430  0.92021253  0.42449381     0.06400
C473        C  0.50331699  0.90097837  0.41959068    -0.30700
O474        O  0.50620069  0.82535782  0.34773690    -0.22500
C475        C  0.52780339  0.81993238  0.32954601    -0.02500
C476        C  0.55235332  0.83701159  0.33458731    -0.16900
H477        H  0.58003385  0.88413753  0.36597008     0.21000
H478        H  0.47799346  0.85366210  0.39074284     0.19400
H479        H  0.48181492  0.90079762  0.42915934     0.19400
H480        H  0.57238751  0.83776165  0.32231544     0.15200
C481        C  0.34997646  0.86336574  0.54308266     0.30700
C482        C  0.35599507  0.89270336  0.54800512    -0.35700
C483        C  0.38528363  0.90103070  0.54530676     0.16700
C484        C  0.40705399  0.88182093  0.53801905     0.22500
C485        C  0.40114078  0.85245191  0.53373212    -0.33800
C486        C  0.37196572  0.84413584  0.53659811     0.16600
O487        O  0.32391570  0.85138748  0.54163322    -0.25800
C488        C  0.32938747  0.82409075  0.53439137     0.06400
C489        C  0.35892743  0.81836300  0.53120109    -0.30700
O490        O  0.43213794  0.89469940  0.53306599    -0.22500
C491        C  0.42663598  0.92244846  0.53791382    -0.02500
C492        C  0.39785497  0.92771674  0.54559307    -0.16900
H493        H  0.33890139  0.90816732  0.55225865     0.21000
H494        H  0.41788416  0.83740401  0.52718768     0.19400
H495        H  0.36914897  0.79856018  0.52407114     0.19400
H496        H  0.38725159  0.94836712  0.54843194     0.15200
C497        C  0.59939059  0.46175698  0.11654393     0.30700
C498        C  0.60438167  0.45997183  0.14643545    -0.35700
C499        C  0.63361413  0.46011690  0.15513382     0.16700
C500        C  0.65638188  0.46170391  0.13571321     0.22500
C501        C  0.65139397  0.46291827  0.10577390    -0.33800
C502        C  0.62214665  0.46303446  0.09709310     0.16600
O503        O  0.57383038  0.46460182  0.10394489    -0.25800
C504        C  0.58021798  0.46762265  0.07603187     0.06400
C505        C  0.60997548  0.46673726  0.07045944    -0.30700
O506        O  0.68174617  0.46497850  0.14862250    -0.22500
C507        C  0.67520735  0.46548119  0.17667414    -0.02500
C508        C  0.64558209  0.46221520  0.18202424    -0.16900
H509        H  0.58669776  0.45998726  0.16188960     0.21000
H510        H  0.66903047  0.46518421  0.09043669     0.19400
H511        H  0.62102689  0.46979390  0.05001434     0.19400
H512        H  0.63431934  0.46355145  0.20254635     0.15200
C513        C  0.59630880  0.63529230  0.29135435     0.30700
C514        C  0.60180094  0.60554658  0.29166727    -0.35700
C515        C  0.63116004  0.59742783  0.29171688     0.16700
C516        C  0.65360515  0.61723134  0.29178984     0.22500
C517        C  0.64810625  0.64700740  0.29222469    -0.33800
C518        C  0.61871970  0.65513504  0.29181117     0.16600
O519        O  0.57072325  0.64744439  0.28739843    -0.25800
C520        C  0.57674278  0.67542633  0.28531972     0.06400
C521        C  0.60624656  0.68154605  0.28819687    -0.30700
O522        O  0.67925668  0.60498619  0.28835205    -0.22500
C523        C  0.67317689  0.57700087  0.28613048    -0.02500
C524        C  0.64360717  0.57100292  0.28831099    -0.16900
H525        H  0.58443402  0.58985779  0.29008611     0.21000
H526        H  0.66549858  0.66270283  0.29107761     0.19400
H527        H  0.61708485  0.70213091  0.28573289     0.19400
H528        H  0.63275164  0.55044435  0.28566387     0.15200
C529        C  0.23033704  0.37392431  0.90740124     0.30700
C530        C  0.24458230  0.39758460  0.89529720    -0.35700
C531        C  0.23017682  0.41136028  0.87263904     0.16700
C532        C  0.20343098  0.40272580  0.86219908     0.22500
C533        C  0.18873469  0.37909362  0.87484138    -0.33800
C534        C  0.20330204  0.36511463  0.89782843     0.16600
O535        O  0.24134185  0.35683718  0.92721130    -0.25800
C536        C  0.22117248  0.33670379  0.93098726     0.06400
C537        C  0.19676968  0.34075030  0.91342612    -0.30700
O538        O  0.19575167  0.41730819  0.83865054    -0.22500
C539        C  0.21803229  0.43533819  0.83438726    -0.02500
C540        C  0.23974181  0.43255867  0.85506198    -0.16900
H541        H  0.26608829  0.40404653  0.90225047     0.21000
H542        H  0.16811454  0.37142399  0.86660602     0.19400
H543        H  0.17783355  0.32702416  0.91141702     0.19400
H544        H  0.26063260  0.44332932  0.85583038     0.15200
C545        C  0.36407509  0.34703970  0.05495612     0.30700
C546        C  0.37487123  0.37250330  0.06776099    -0.35700
C547        C  0.40072907  0.38372033  0.05579372     0.16700
C548        C  0.41489252  0.37056506  0.03297190     0.22500
C549        C  0.40478509  0.34475119  0.02097336    -0.33800
C550        C  0.37897153  0.33384436  0.03262746     0.16600
O551        O  0.33809146  0.33534965  0.05928579    -0.25800
C552        C  0.33659720  0.31459323  0.03935392     0.06400
C553        C  0.36151219  0.31260342  0.02247644    -0.30700
O554        O  0.43580966  0.38658692  0.02209226    -0.22500
C555        C  0.43562110  0.41025255  0.03830478    -0.02500
C556        C  0.41448160  0.40963156  0.05993377    -0.16900
H557        H  0.36285695  0.38389971  0.08430415     0.21000
H558        H  0.41503634  0.33511448  0.00227942     0.19400
H559        H  0.36511101  0.29909303  0.00371686     0.19400
H560        H  0.40837975  0.42680542  0.07458726     0.15200
C561        C  0.61058646  0.59845539  0.96238046     0.30700
C562        C  0.64045376  0.60432777  0.96079458    -0.35700
C563        C  0.64834250  0.63350272  0.96148499     0.16700
C564        C  0.62827305  0.65556736  0.96339785     0.22500
C565        C  0.59824556  0.64969850  0.96461923    -0.33800
C566        C  0.59032838  0.62037771  0.96412092     0.16600
O567        O  0.59880822  0.57265207  0.96477790    -0.25800
C568        C  0.57054891  0.57790092  0.96802487     0.06400
C569        C  0.56393003  0.60726383  0.96761513    -0.30700
O570        O  0.64076604  0.68111912  0.96620504    -0.22500
C571        C  0.66916646  0.67522926  0.96606682    -0.02500
C572        C  0.67506901  0.64595899  0.96307335    -0.16900
H573        H  0.65650952  0.58727012  0.96037894     0.21000
H574        H  0.58230027  0.66668998  0.96706940     0.19400
H575        H  0.54303335  0.61744558  0.97113025     0.19400
H576        H  0.69599715  0.63526770  0.96364626     0.15200
C577        C  0.65150438  0.78736644  0.11254185     0.30700
C578        C  0.64586187  0.78783703  0.14235082    -0.35700
C579        C  0.61650072  0.78613049  0.15043141     0.16700
C580        C  0.59415354  0.78415114  0.13058109     0.22500
C581        C  0.59975998  0.78408395  0.10073851    -0.33800
C582        C  0.62914954  0.78574566  0.09266097     0.16600
O583        O  0.67742159  0.78602508  0.10033215    -0.25800
C584        C  0.67162212  0.78369182  0.07223940     0.06400
C585        C  0.64193439  0.78357684  0.06620055    -0.30700
O586        O  0.56855915  0.78044708  0.14298584    -0.22500
C587        C  0.57459743  0.78018018  0.17114766    -0.02500
C588        C  0.60406838  0.78374481  0.17702785    -0.16900
H589        H  0.66321520  0.78827910  0.15815921     0.21000
H590        H  0.58252813  0.78171717  0.08496915     0.19400
H591        H  0.63135131  0.78043001  0.04552277     0.19400
H592        H  0.61490148  0.78316901  0.19780558     0.15200
C593        C  0.78787306  0.61801300  0.15337965     0.30700
C594        C  0.78857592  0.64779815  0.14773226    -0.35700
C595        C  0.78811585  0.65585431  0.11845251     0.16700
C596        C  0.78722001  0.63593681  0.09626178     0.22500
C597        C  0.78714423  0.60616509  0.10189206    -0.33800
C598        C  0.78740120  0.59812602  0.13115090     0.16600
O599        O  0.78512074  0.60583905  0.17904840    -0.25800
C600        C  0.78302857  0.57775859  0.17323742     0.06400
C601        C  0.78448887  0.57170523  0.14376528    -0.30700
O602        O  0.78379119  0.64811704  0.07071065    -0.22500
C603        C  0.78254536  0.67624385  0.07649150    -0.02500
C604        C  0.78538076  0.68234642  0.10586199    -0.16900
H605        H  0.78799758  0.66359158  0.16496519     0.21000
H606        H  0.78547183  0.59040551  0.08469858     0.19400
H607        H  0.78194807  0.55105056  0.13312559     0.19400
H608        H  0.78365862  0.70307311  0.11652186     0.15200
C609        C  0.83829675  0.70953598  0.87799776     0.30700
C610        C  0.84494918  0.71519542  0.84899032    -0.35700
C611        C  0.87424150  0.71229859  0.84119918     0.16700
C612        C  0.89567643  0.70452123  0.86059647     0.22500
C613        C  0.88885794  0.69795765  0.88948052    -0.33800
C614        C  0.85942947  0.70066979  0.89727334     0.16600
O615        O  0.81326587  0.71505630  0.89071885    -0.25800
C616        C  0.81808543  0.70888085  0.91836327     0.06400
C617        C  0.84637060  0.69969534  0.92375245    -0.30700
O618        O  0.92205347  0.70658865  0.84940117    -0.22500
C619        C  0.91729641  0.71547757  0.82242947    -0.02500
C620        C  0.88795145  0.71910677  0.81610612    -0.16900
H621        H  0.82872829  0.72303165  0.83397410     0.21000
H622        H  0.90551932  0.69272979  0.90514584     0.19400
H623        H  0.85658021  0.69598522  0.94451019     0.19400
H624        H  0.87828700  0.72742936  0.79646506     0.15200
C625        C  0.54492123  0.36053713  0.84962318     0.30700
C626        C  0.56085410  0.37128989  0.87349215    -0.35700
C627        C  0.54849438  0.39509021  0.88818325     0.16700
C628        C  0.52234187  0.40705888  0.87974696     0.22500
C629        C  0.50684866  0.39673665  0.85595247    -0.33800
C630        C  0.51906551  0.37328460  0.84150382     0.16600
O631        O  0.55063739  0.33707123  0.83410547    -0.25800
C632        C  0.52800492  0.33514732  0.81605308     0.06400
C633        C  0.50795370  0.35722414  0.81975080    -0.30700
O634        O  0.51304080  0.42704079  0.89754616    -0.22500
C635        C  0.53343384  0.42861193  0.91779128    -0.02500
C636        C  0.55635405  0.40935655  0.91312861    -0.16900
H637        H  0.58074348  0.36116052  0.88076307     0.21000
H638        H  0.48595895  0.40561919  0.84989278     0.19400
H639        H  0.48725835  0.36011599  0.80896092     0.19400
H640        H  0.57480245  0.40510400  0.92701543     0.15200
C641        C  0.46066976  0.11616300  0.59580943     0.30700
C642        C  0.45894723  0.14582499  0.60150345    -0.35700
C643        C  0.45793208  0.15373279  0.63076624     0.16700
C644        C  0.45837864  0.13386419  0.65299266     0.22500
C645        C  0.45941720  0.10413487  0.64728113    -0.33800
C646        C  0.46066757  0.09623549  0.61798982     0.16600
O647        O  0.46494980  0.10422098  0.57023922    -0.25800
C648        C  0.46762260  0.07625682  0.57608700     0.06400
C649        C  0.46493743  0.07002087  0.60542545    -0.30700
O650        O  0.46077848  0.14615462  0.67865916    -0.22500
C651        C  0.46179818  0.17424535  0.67276045    -0.02500
C652        C  0.45982820  0.18018373  0.64333385    -0.16900
H653        H  0.45998269  0.16168583  0.58438902     0.21000
H654        H  0.46083286  0.08836994  0.66445624     0.19400
H655        H  0.46747593  0.04939336  0.61607632     0.19400
H656        H  0.46181464  0.20085139  0.63264176     0.15200
C657        C  0.39783273  0.20698162  0.86126238     0.30700
C658        C  0.37477046  0.19138501  0.87404080    -0.35700
C659        C  0.35953843  0.20565691  0.89638049     0.16700
C660        C  0.36678608  0.23320252  0.90520517     0.22500
C661        C  0.38995801  0.24831114  0.89310755    -0.33800
C662        C  0.40489709  0.23423387  0.87105011     0.16600
O663        O  0.41316846  0.19961756  0.83807004    -0.25800
C664        C  0.43001595  0.22261442  0.83338004     0.06400
C665        C  0.42584216  0.24448655  0.85344704    -0.30700
O666        O  0.34870093  0.24374286  0.92433074    -0.22500
C667        C  0.32946900  0.22282969  0.92840097    -0.02500
C668        C  0.33511291  0.19827816  0.91183725    -0.16900
H669        H  0.36834475  0.17029819  0.86628151     0.21000
H670        H  0.39511220  0.27018174  0.89954343     0.19400
H671        H  0.43552618  0.26578513  0.85382313     0.19400
H672        H  0.32242865  0.17865902  0.91040435     0.15200
C673        C  0.37162762  0.33839064  0.72062359     0.30700
C674        C  0.34622412  0.34859479  0.73361970    -0.35700
C675        C  0.33401767  0.37324868  0.72131829     0.16700
C676        C  0.34571887  0.38718470  0.69764527     0.22500
C677        C  0.37098027  0.37641018  0.68402948    -0.33800
C678        C  0.38339917  0.35150919  0.69649926     0.16600
O679        O  0.38824219  0.31787549  0.73109500    -0.25800
C680        C  0.41094062  0.31721473  0.71336572     0.06400
C681        C  0.40911413  0.33747014  0.69113875    -0.30700
O682        O  0.33248297  0.41206647  0.69231427    -0.22500
C683        C  0.31220992  0.41370132  0.71293807    -0.02500
C684        C  0.31216457  0.39002294  0.73127394    -0.16900
H685        H  0.33757644  0.33900310  0.75314223     0.21000
H686        H  0.38115106  0.38754678  0.66613139     0.19400
H687        H  0.42536401  0.34263428  0.67500876     0.19400
H688        H  0.29930897  0.38676414  0.75062713     0.15200
C689        C  0.11218274  0.45713666  0.59769843     0.30700
C690        C  0.14209783  0.45785520  0.60354886    -0.35700
C691        C  0.14988699  0.45936418  0.63281109     0.16700
C692        C  0.12970881  0.46013754  0.65492666     0.22500
C693        C  0.09974052  0.45892894  0.64909164    -0.33800
C694        C  0.09191721  0.45739017  0.61976146     0.16600
O695        O  0.10013757  0.45929564  0.57190962    -0.25800
C696        C  0.07176362  0.46030977  0.57743313     0.06400
C697        C  0.06536198  0.45935556  0.60680954    -0.30700
O698        O  0.14183736  0.46448815  0.68047068    -0.22500
C699        C  0.17013621  0.46638388  0.67456107    -0.02500
C700        C  0.17636167  0.46316299  0.64528778    -0.16900
H701        H  0.15813271  0.45871851  0.58644141     0.21000
H702        H  0.08365597  0.46054302  0.66609627     0.19400
H703        H  0.04443461  0.46235275  0.61712290     0.19400
H704        H  0.19721258  0.46509605  0.63457085     0.15200
C705        C  0.87262318  0.54325402  0.34219372     0.30700
C706        C  0.90198580  0.53870074  0.34910637    -0.35700
C707        C  0.90969582  0.54294870  0.37815233     0.16700
C708        C  0.88989112  0.55093489  0.39913533     0.22500
C709        C  0.86068949  0.55656388  0.39198710    -0.33800
C710        C  0.85298178  0.55250421  0.36281998     0.16600
O711        O  0.85999753  0.53657172  0.31743823    -0.25800
C712        C  0.83200601  0.54239277  0.32191651     0.06400
C713        C  0.82636522  0.55251035  0.34970339    -0.30700
O714        O  0.90095622  0.54958073  0.42552642    -0.22500
C715        C  0.92831518  0.54102248  0.42127406    -0.02500
C716        C  0.93496779  0.53693635  0.39218359    -0.16900
H717        H  0.91735759  0.53062031  0.33333053     0.21000
H718        H  0.84471953  0.56198031  0.40830591     0.19400
H719        H  0.80539549  0.55653548  0.35957381     0.19400
H720        H  0.95482352  0.52838117  0.38294632     0.15200
C721        C  0.15892201  0.62979770  0.48004882     0.30700
C722        C  0.14735930  0.60642860  0.49511865    -0.35700
C723        C  0.12337719  0.59306040  0.48247861     0.16700
C724        C  0.11150608  0.60155416  0.45642733     0.22500
C725        C  0.12360133  0.62486901  0.44086242    -0.33800
C726        C  0.14767543  0.63869631  0.45384114     0.16600
O727        O  0.17914844  0.64707049  0.48999878    -0.25800
C728        C  0.18140373  0.66748857  0.47005515     0.06400
C729        C  0.16255982  0.66338915  0.44673035    -0.30700
O730        O  0.08729823  0.58717309  0.45027755    -0.22500
C731        C  0.08392459  0.56965779  0.47295166    -0.02500
C732        C  0.10582291  0.57241455  0.49337771    -0.16900
H733        H  0.15549953  0.60013916  0.51612806     0.21000
H734        H  0.11406617  0.63257597  0.42094091     0.19400
H735        H  0.15894771  0.67750176  0.42845726     0.19400
H736        H  0.10774725  0.56163303  0.51404382     0.15200
C737        C  0.97307049  0.62781629  0.66185752     0.30700
C738        C  0.98680736  0.60318529  0.65115823    -0.35700
C739        C  0.97573418  0.59215611  0.62533805     0.16700
C740        C  0.95227127  0.60401325  0.61099205     0.22500
C741        C  0.93791085  0.62847005  0.62221086    -0.33800
C742        C  0.94934965  0.63990206  0.64809218     0.16600
O743        O  0.98283497  0.64373046  0.68323096    -0.25800
C744        C  0.96513472  0.66632158  0.68365873     0.06400
C745        C  0.94351848  0.66506335  0.66253981    -0.30700
O746        O  0.94760228  0.59146951  0.58561870    -0.22500
C747        C  0.96861103  0.57167510  0.58395584    -0.02500
C748        C  0.98650673  0.57116403  0.60810645    -0.16900
H749        H  0.00610956  0.59436544  0.66126194     0.21000
H750        H  0.92025974  0.63883600  0.61072556     0.19400
H751        H  0.92772511  0.68146653  0.65697818     0.19400
H752        H  0.00562378  0.55800967  0.61180864     0.15200
C753        C  0.34111567  0.02975443  0.37305555     0.30700
C754        C  0.35077509  0.01636916  0.39826059    -0.35700
C755        C  0.37639262  0.02722875  0.41010077     0.16700
C756        C  0.39163683  0.05005000  0.39835569     0.22500
C757        C  0.38150046  0.06401930  0.37317503    -0.33800
C758        C  0.35568016  0.05286738  0.36099437     0.16600
O759        O  0.31981487  0.02028351  0.35681174    -0.25800
C760        C  0.32011820  0.03753621  0.33396977     0.06400
C761        C  0.34178622  0.05859091  0.33534266    -0.30700
O762        O  0.41681724  0.05436410  0.41169145    -0.22500
C763        C  0.41733525  0.03384826  0.43191716    -0.02500
C764        C  0.39269899  0.01659713  0.43189706    -0.16900
H765        H  0.34000360  0.99755366  0.40702900     0.21000
H766        H  0.39367663  0.08118017  0.36294969     0.19400
H767        H  0.34792521  0.07401314  0.31888080     0.19400
H768        H  0.38827638  0.99775717  0.44500455     0.15200
C769        C  0.28259400  0.13283703  0.09535926     0.30700
C770        C  0.28207061  0.10305197  0.10085940    -0.35700
C771        C  0.28530880  0.09484004  0.12990191     0.16700
C772        C  0.28889873  0.11457252  0.15200357     0.22500
C773        C  0.28988117  0.14429930  0.14644824    -0.33800
C774        C  0.28644144  0.15250392  0.11746985     0.16600
O775        O  0.27775550  0.14539884  0.07019698    -0.25800
C776        C  0.27848821  0.17346916  0.07630798     0.06400
C777        C  0.28388354  0.17912865  0.10537679    -0.30700
O778        O  0.28840192  0.10242876  0.17778071    -0.22500
C779        C  0.28461234  0.07451543  0.17218021    -0.02500
C780        C  0.28278910  0.06850443  0.14272212    -0.16900
H781        H  0.27813374  0.08745168  0.08387401     0.21000
H782        H  0.29179550  0.15999875  0.16368544     0.19400
H783        H  0.28468626  0.19983726  0.11619104     0.19400
H784        H  0.27806382  0.04805469  0.13241703     0.15200
C785        C  0.20840818  0.88855881  0.35080517     0.30700
C786        C  0.20524478  0.85903296  0.35684640    -0.35700
C787        C  0.20809255  0.85099862  0.38599420     0.16700
C788        C  0.21354232  0.87063766  0.40778891     0.22500
C789        C  0.21637084  0.90020794  0.40180307    -0.33800
C790        C  0.21368338  0.90822523  0.37263580     0.16600
O791        O  0.20951802  0.90038483  0.32482503    -0.25800
C792        C  0.21526341  0.92802440  0.33013207     0.06400
C793        C  0.21822102  0.93410261  0.35943941    -0.30700
O794        O  0.21798894  0.85810619  0.43306187    -0.22500
C795        C  0.21528031  0.83004882  0.42742647    -0.02500
C796        C  0.20899805  0.82441209  0.39849425    -0.16900
H797        H  0.20214873  0.84327218  0.33986437     0.21000
H798        H  0.22165199  0.91568819  0.41850729     0.19400
H799        H  0.22468562  0.95425460  0.36937221     0.19400
H800        H  0.20711790  0.80366637  0.38790455     0.15200
C801        C  0.36173383  0.89945517  0.20628265     0.30700
C802        C  0.37376053  0.87670169  0.18979112    -0.35700
C803        C  0.39717900  0.86170630  0.20262701     0.16700
C804        C  0.40780708  0.86902105  0.22958608     0.22500
C805        C  0.39637302  0.89185908  0.24555951    -0.33800
C806        C  0.37309507  0.90640671  0.23302021     0.16600
O807        O  0.33800568  0.91463819  0.20032245    -0.25800
C808        C  0.33444317  0.93112618  0.22376974     0.06400
C809        C  0.35577591  0.92693172  0.24452926    -0.30700
O810        O  0.42738270  0.85088931  0.23914582    -0.22500
C811        C  0.42992605  0.83150924  0.21819535    -0.02500
C812        C  0.41187308  0.83713703  0.19457460    -0.16900
H813        H  0.36462512  0.87024842  0.16922350     0.21000
H814        H  0.40408348  0.89690600  0.26708581     0.19400
H815        H  0.35744547  0.93665391  0.26576528     0.19400
H816        H  0.40860708  0.82407334  0.17544279     0.15200
C817        C  0.86329012  0.90298595  0.70394568     0.30700
C818        C  0.89332110  0.89734758  0.70232749    -0.35700
C819        C  0.90165331  0.86826722  0.70467037     0.16700
C820        C  0.88174163  0.84620195  0.70784407     0.22500
C821        C  0.85172846  0.85178376  0.70900560    -0.33800
C822        C  0.84344470  0.88086792  0.70722791     0.16600
O823        O  0.85104901  0.92870761  0.70597970    -0.25800
C824        C  0.82301751  0.92297973  0.71050626     0.06400
C825        C  0.81706295  0.89360147  0.71162332    -0.30700
O826        O  0.89428075  0.82105762  0.71266538    -0.22500
C827        C  0.92263780  0.82697803  0.71274042    -0.02500
C828        C  0.92852309  0.85602614  0.70767834    -0.16900
H829        H  0.90916932  0.91457035  0.70115568     0.21000
H830        H  0.83605469  0.83479509  0.71286617     0.19400
H831        H  0.79666252  0.88323275  0.71699526     0.19400
H832        H  0.94940313  0.86682117  0.70807052     0.15200
C833        C  0.65182173  0.11732593  0.78436809     0.30700
C834        C  0.64625177  0.14707766  0.78316637    -0.35700
C835        C  0.61683599  0.15519339  0.78295919     0.16700
C836        C  0.59439158  0.13542624  0.78392335     0.22500
C837        C  0.59996699  0.10568009  0.78545774    -0.33800
C838        C  0.62939250  0.09755232  0.78556651     0.16600
O839        O  0.67757431  0.10491373  0.78222171    -0.25800
C840        C  0.67161191  0.07680150  0.78207192     0.06400
C841        C  0.64197436  0.07096660  0.78425884    -0.30700
O842        O  0.56858320  0.14766618  0.78132058    -0.22500
C843        C  0.57455643  0.17566913  0.77881488    -0.02500
C844        C  0.60423870  0.18159088  0.77978323    -0.16900
H845        H  0.66362191  0.16274584  0.78136499     0.21000
H846        H  0.58258314  0.08992501  0.78541211     0.19400
H847        H  0.63119027  0.05022668  0.78325608     0.19400
H848        H  0.61500071  0.20219067  0.77709339     0.15200
C849        C  0.63472134  0.96137825  0.65149464     0.30700
C850        C  0.60489306  0.95978242  0.64540457    -0.35700
C851        C  0.59735592  0.95993913  0.61603295     0.16700
C852        C  0.61771826  0.96139268  0.59410181     0.22500
C853        C  0.64757216  0.96242276  0.60019188    -0.33800
C854        C  0.65510260  0.96246593  0.62956420     0.16600
O855        O  0.64644105  0.96454656  0.67733259    -0.25800
C856        C  0.67469057  0.96757553  0.67185146     0.06400
C857        C  0.68134153  0.96631046  0.64252464    -0.30700
O858        O  0.60572938  0.96456779  0.56838849    -0.22500
C859        C  0.57734294  0.96509122  0.57394805    -0.02500
C860        C  0.57087466  0.96204613  0.60319054    -0.16900
H861        H  0.58865744  0.95997983  0.66235216     0.21000
H862        H  0.66369573  0.96462717  0.58328394     0.19400
H863        H  0.70222943  0.96953186  0.63219543     0.19400
H864        H  0.54983516  0.96335976  0.61364121     0.15200
C865        C  0.70429822  0.86268938  0.89726948     0.30700
C866        C  0.68798301  0.87641793  0.87534259    -0.35700
C867        C  0.70210516  0.89913882  0.86061449     0.16700
C868        C  0.73012521  0.90753435  0.86737795     0.22500
C869        C  0.74598950  0.89438478  0.88935076    -0.33800
C870        C  0.73213623  0.87185437  0.90366806     0.16600
O871        O  0.69700577  0.83928290  0.91214163    -0.25800
C872        C  0.72071633  0.83374327  0.92789199     0.06400
C873        C  0.74295639  0.85347169  0.92349357    -0.30700
O874        O  0.74050955  0.92696074  0.84965482    -0.22500
C875        C  0.71906412  0.93162350  0.83109604    -0.02500
C876        C  0.69429372  0.91515136  0.83685895    -0.16900
H877        H  0.66645346  0.86907904  0.86931248     0.21000
H878        H  0.76829456  0.90039022  0.89398917     0.19400
H879        H  0.76466625  0.85342630  0.93262976     0.19400
H880        H  0.67440734  0.91382057  0.82438987     0.15200
C881        C  0.59886984  0.11537207  0.45946910     0.30700
C882        C  0.60409137  0.14523882  0.45947137    -0.35700
C883        C  0.63339227  0.15382341  0.45995049     0.16700
C884        C  0.65610837  0.13436686  0.46019834     0.22500
C885        C  0.65089560  0.10443937  0.45954423    -0.33800
C886        C  0.62152608  0.09583648  0.45930365     0.16600
O887        O  0.57323821  0.10280674  0.46235376    -0.25800
C888        C  0.57937421  0.07476825  0.46396415     0.06400
C889        C  0.60912640  0.06915221  0.46194307    -0.30700
O890        O  0.68163582  0.14709055  0.46370100    -0.22500
C891        C  0.67521956  0.17509691  0.46560491    -0.02500
C892        C  0.64550927  0.18049792  0.46320647    -0.16900
H893        H  0.58649522  0.16071666  0.46061330     0.21000
H894        H  0.66846988  0.08894346  0.46071887     0.19400
H895        H  0.62011463  0.04861741  0.46414204     0.19400
H896        H  0.63431793  0.20092700  0.46544378     0.15200
C897        C  0.84064564  0.37174219  0.54327664     0.30700
C898        C  0.84556816  0.40132598  0.53895158    -0.35700
C899        C  0.87460410  0.41047265  0.54084008     0.16700
C900        C  0.89722621  0.39175634  0.54660096     0.22500
C901        C  0.89221850  0.36230685  0.55166161    -0.33800
C902        C  0.86318422  0.35315430  0.54976957     0.16600
O903        O  0.81595446  0.35803896  0.53857581    -0.25800
C904        C  0.82257059  0.33041373  0.54273824     0.06400
C905        C  0.85163962  0.32604414  0.54973050    -0.30700
O906        O  0.92289898  0.40414289  0.54386051    -0.22500
C907        C  0.91670523  0.43120109  0.53644947    -0.02500
C908        C  0.88695902  0.43647715  0.53454122    -0.16900
H909        H  0.82823361  0.41584659  0.53280365     0.21000
H910        H  0.90989529  0.34730470  0.55511544     0.19400
H911        H  0.86308904  0.30574473  0.55171349     0.19400
H912        H  0.87615747  0.45596542  0.52745218     0.15200
C913        C  0.73400573  0.40834708  0.37113189     0.30700
C914        C  0.74992161  0.39467316  0.39276317    -0.35700
C915        C  0.73678042  0.37073316  0.40537853     0.16700
C916        C  0.70953205  0.36075527  0.39781107     0.22500
C917        C  0.69327734  0.37478065  0.37605355    -0.33800
C918        C  0.70670067  0.39890167  0.36300440     0.16600
O919        O  0.74376867  0.42942380  0.35496790    -0.25800
C920        C  0.72262751  0.43403668  0.33602996     0.06400
C921        C  0.69872662  0.41584937  0.33999985    -0.30700
O922        O  0.70240080  0.33694900  0.41212597    -0.22500
C923        C  0.72570811  0.33191278  0.42860014    -0.02500
C924        C  0.74751783  0.35231023  0.42518102    -0.16900
H925        H  0.77165196  0.40157753  0.39857433     0.21000
H926        H  0.67221993  0.36692825  0.36915036     0.19400
H927        H  0.67938954  0.41407474  0.32676529     0.19400
H928        H  0.76861543  0.35317194  0.43557891     0.15200
C929        C  0.63167774  0.29380018  0.59501308     0.30700
C930        C  0.60161303  0.29516666  0.60039032    -0.35700
C931        C  0.59316295  0.29395630  0.62957497     0.16700
C932        C  0.61296092  0.29193970  0.65194000     0.22500
C933        C  0.64298041  0.29138792  0.64662292    -0.33800
C934        C  0.65138293  0.29224843  0.61749364     0.16600
O935        O  0.64418856  0.29065671  0.56944662    -0.25800
C936        C  0.67225293  0.28715383  0.57570400     0.06400
C937        C  0.67795478  0.28827443  0.60524737    -0.30700
O938        O  0.60037696  0.28768135  0.67720649    -0.22500
C939        C  0.57211339  0.28698273  0.67106001    -0.02500
C940        C  0.56631080  0.29101019  0.64177161    -0.16900
H941        H  0.58585971  0.29526850  0.58299705     0.21000
H942        H  0.65862243  0.28861350  0.66389297     0.19400
H943        H  0.69841282  0.28447707  0.61620591     0.19400
H944        H  0.54551497  0.28989430  0.63083858     0.15200
C945        C  0.78562665  0.15686522  0.61896768     0.30700
C946        C  0.78388995  0.15137023  0.64872859    -0.35700
C947        C  0.78524886  0.12228824  0.65680803     0.16700
C948        C  0.78818438  0.10017728  0.63697662     0.22500
C949        C  0.79038137  0.10571216  0.60728074    -0.33800
C950        C  0.78890496  0.13475898  0.59918887     0.16600
O951        O  0.78190943  0.18208485  0.60644728    -0.25800
C952        C  0.78286683  0.17603398  0.57833222     0.06400
C953        C  0.78737767  0.14696512  0.57251357    -0.30700
O954        O  0.78621180  0.07452429  0.64897995    -0.22500
C955        C  0.78215450  0.08026099  0.67686105    -0.02500
C956        C  0.78151563  0.10961750  0.68306073    -0.16900
H957        H  0.78035036  0.16841942  0.66432515     0.21000
H958        H  0.79173450  0.08850918  0.59151520     0.19400
H959        H  0.78761481  0.13620092  0.55173322     0.19400
H960        H  0.77710811  0.12002211  0.70356381     0.15200
C961        C  0.11718819  0.15633269  0.28194937     0.30700
C962        C  0.14715913  0.15081541  0.28138512    -0.35700
C963        C  0.15530184  0.12176702  0.28338029     0.16700
C964        C  0.13536295  0.09961084  0.28579548     0.22500
C965        C  0.10537614  0.10515692  0.28673992    -0.33800
C966        C  0.09722738  0.13422567  0.28464540     0.16600
O967        O  0.10473045  0.18164314  0.27811721    -0.25800
C968        C  0.07642676  0.17568818  0.27841718     0.06400
C969        C  0.07046169  0.14654675  0.28251020    -0.30700
O970        O  0.14769543  0.07395436  0.28467621    -0.22500
C971        C  0.17588316  0.07980058  0.28165035    -0.02500
C972        C  0.18188929  0.10918802  0.28089951    -0.16900
H973        H  0.16296864  0.16786859  0.27841466     0.21000
H974        H  0.08948934  0.08795024  0.28779769     0.19400
H975        H  0.04951337  0.13586174  0.28251669     0.19400
H976        H  0.20260261  0.11968432  0.27719307     0.15200
C977        C  0.88464334  0.34943755  0.20768755     0.30700
C978        C  0.87238125  0.37248693  0.19199524    -0.35700
C979        C  0.84981758  0.38768072  0.20594629     0.16700
C980        C  0.84018579  0.38040858  0.23328463     0.22500
C981        C  0.85184161  0.35720097  0.24853152    -0.33800
C982        C  0.87427138  0.34233301  0.23478923     0.16600
O983        O  0.90798335  0.33422546  0.20059181    -0.25800
C984        C  0.91229254  0.31744855  0.22360441     0.06400
C985        C  0.89182929  0.32150322  0.24528938    -0.30700
O986        O  0.82135642  0.39888723  0.24374615    -0.22500
C987        C  0.81839577  0.41834469  0.22294372    -0.02500
C988        C  0.83531769  0.41245747  0.19860848    -0.16900
H989        H  0.88080816  0.37902613  0.17116592     0.21000
H990        H  0.84498976  0.35210725  0.27032121     0.19400
H991        H  0.89111831  0.31175119  0.26654369     0.19400
H992        H  0.83799389  0.42546405  0.17937072     0.15200
C993        C  0.13077585  0.29159260  0.09441062     0.30700
C994        C  0.10069872  0.29089658  0.09970331    -0.35700
C995        C  0.09221207  0.29270701  0.12881673     0.16700
C996        C  0.11197279  0.29510694  0.15117781     0.22500
C997        C  0.14199740  0.29639096  0.14583568    -0.33800
C998        C  0.15047447  0.29440544  0.11677147     0.16600
O999        O  0.14358988  0.28727822  0.06923045    -0.25800
C1000       C  0.17185092  0.28740897  0.07555014     0.06400
C1001       C  0.17740253  0.29187405  0.10478894    -0.30700
O1002       O  0.09959416  0.29288719  0.17681713    -0.22500
C1003       C  0.07149838  0.28919711  0.17088338    -0.02500
C1004       C  0.06559976  0.28921168  0.14134573    -0.16900
H1005       H  0.08509852  0.28761095  0.08247930     0.21000
H1006       H  0.15772164  0.29722783  0.16323835     0.19400
H1007       H  0.19817297  0.29157459  0.11582304     0.19400
H1008       H  0.04510262  0.28482664  0.13067876     0.15200
C1009       C  0.03644262  0.34832763  0.36425558     0.30700
C1010       C  0.03545834  0.35324607  0.39422504    -0.35700
C1011       C  0.03373603  0.38218967  0.40299042     0.16700
C1012       C  0.03322577  0.40480075  0.38360501     0.22500
C1013       C  0.03436999  0.39989678  0.35361355    -0.33800
C1014       C  0.03592641  0.37091167  0.34482549     0.16600
O1015       O  0.03517323  0.32293669  0.35139324    -0.25800
C1016       C  0.03423194  0.32921734  0.32333055     0.06400
C1017       C  0.03441413  0.35875088  0.31794520    -0.30700
O1018       O  0.02972844  0.43000855  0.39646429    -0.22500
C1019       C  0.02792680  0.42349492  0.42446456    -0.02500
C1020       C  0.03032000  0.39402996  0.42979394    -0.16900
H1021       H  0.03486228  0.33566720  0.40959648     0.21000
H1022       H  0.03300101  0.41739335  0.33819815     0.19400
H1023       H  0.03163480  0.36961330  0.29741914     0.19400
H1024       H  0.02867573  0.38290022  0.45029971     0.15200
C1025       C  0.86226054  0.20345225  0.40019261     0.30700
C1026       C  0.87300460  0.18864524  0.37565554    -0.35700
C1027       C  0.89827507  0.20030210  0.36271260     0.16700
C1028       C  0.91181516  0.22461722  0.37352066     0.22500
C1029       C  0.90155131  0.23887446  0.39807626    -0.33800
C1030       C  0.87644078  0.22755021  0.41061461     0.16600
O1031       O  0.83744310  0.19857701  0.41410264    -0.25800
C1032       C  0.83602784  0.22006239  0.43334614     0.06400
C1033       C  0.85977845  0.23848222  0.43208243    -0.30700
O1034       O  0.93267355  0.23416401  0.35670291    -0.22500
C1035       C  0.93312164  0.21581910  0.33466567    -0.02500
C1036       C  0.91237679  0.19392968  0.33724573    -0.16900
H1037       H  0.86164580  0.17039510  0.36642850     0.21000
H1038       H  0.91149304  0.25856506  0.40584379     0.19400
H1039       H  0.86347422  0.25807076  0.44430897     0.19400
H1040       H  0.90685833  0.17745788  0.32158425     0.15200
C1041       C  0.85973026  0.85298003  0.04040429     0.30700
C1042       C  0.87165782  0.87627696  0.05623275    -0.35700
C1043       C  0.89521939  0.89084477  0.04309773     0.16700
C1044       C  0.90590745  0.88278962  0.01638131     0.22500
C1045       C  0.89441894  0.85958791  0.00094696    -0.33800
C1046       C  0.87117938  0.84528270  0.01391374     0.16600
O1047       O  0.83639788  0.83743743  0.04708869    -0.25800
C1048       C  0.83324576  0.81979734  0.02442421     0.06400
C1049       C  0.85440396  0.82379439  0.00337140    -0.30700
O1050       O  0.92634282  0.90001160  0.00687363    -0.22500
C1051       C  0.92941325  0.91954808  0.02762610    -0.02500
C1052       C  0.91074411  0.91498215  0.05102870    -0.16900
H1053       H  0.86267605  0.88309713  0.07672409     0.21000
H1054       H  0.90242099  0.85373546  0.97976871     0.19400
H1055       H  0.85634704  0.81322831  0.98258913     0.19400
H1056       H  0.90807252  0.92814052  0.07017600     0.15200
C1057       C  0.09600646  0.11891508  0.96358161     0.30700
C1058       C  0.10090448  0.14881603  0.96278413    -0.35700
C1059       C  0.13016294  0.15752349  0.96206819     0.16700
C1060       C  0.15296202  0.13812798  0.96212429     0.22500
C1061       C  0.14806416  0.10830063  0.96266998    -0.33800
C1062       C  0.11889022  0.09962710  0.96342797     0.16600
O1063       O  0.07056475  0.10600039  0.96640087    -0.25800
C1064       C  0.07732427  0.07811212  0.96796856     0.06400
C1065       C  0.10706551  0.07290827  0.96617964    -0.30700
O1066       O  0.17850320  0.15086082  0.96405610    -0.22500
C1067       C  0.17211193  0.17882001  0.96514305    -0.02500
C1068       C  0.14234169  0.18428853  0.96380943    -0.16900
H1069       H  0.08322702  0.16418368  0.96376136     0.21000
H1070       H  0.16577171  0.09296765  0.96360011     0.19400
H1071       H  0.11838083  0.05251837  0.96800320     0.19400
H1072       H  0.13127195  0.20479052  0.96587760     0.15200
C1073       C  0.03825786  0.86537313  0.84703577     0.30700
C1074       C  0.03995027  0.89514023  0.85241817    -0.35700
C1075       C  0.04325022  0.90332546  0.88147158     0.16700
C1076       C  0.04468061  0.88358800  0.90376026     0.22500
C1077       C  0.04329646  0.85378260  0.89833146    -0.33800
C1078       C  0.03997763  0.84559772  0.86926572     0.16600
O1079       O  0.03302886  0.85311910  0.82179364    -0.25800
C1080       C  0.03137434  0.82509674  0.82787020     0.06400
C1081       C  0.03560743  0.81914173  0.85708388    -0.30700
O1082       O  0.04415828  0.89604169  0.92946404    -0.22500
C1083       C  0.04302033  0.92413692  0.92359212    -0.02500
C1084       C  0.04223614  0.92988770  0.89409010    -0.16900
H1085       H  0.03758413  0.91085530  0.83529077     0.21000
H1086       H  0.04339422  0.83813082  0.91567741     0.19400
H1087       H  0.03443507  0.79847947  0.86790528     0.19400
H1088       H  0.03857257  0.95044055  0.88361215     0.15200
C1089       C  0.15452464  0.96321372  0.13595653     0.30700
C1090       C  0.14907377  0.96206865  0.10611349    -0.35700
C1091       C  0.11969554  0.96266318  0.09786683     0.16700
C1092       C  0.09717707  0.96418961  0.11758386     0.22500
C1093       C  0.10262247  0.96491746  0.14744281    -0.33800
C1094       C  0.13200246  0.96443760  0.15568664     0.16600
O1095       O  0.18030964  0.96548142  0.14831940    -0.25800
C1096       C  0.17423569  0.96804082  0.17635873     0.06400
C1097       C  0.14452021  0.96743681  0.18219129    -0.30700
O1098       O  0.07156258  0.96728680  0.10504432    -0.22500
C1099       C  0.07773967  0.96768041  0.07691823    -0.02500
C1100       C  0.10733930  0.96467530  0.07120508    -0.16900
H1101       H  0.16651461  0.96202208  0.09040311     0.21000
H1102       H  0.08524634  0.96702304  0.16308100     0.19400
H1103       H  0.13370421  0.97044175  0.20276959     0.19400
H1104       H  0.11830423  0.96569912  0.05051137     0.15200
C1105       C  0.89860052  0.04235302  0.88867940     0.30700
C1106       C  0.87501467  0.05790202  0.87693273    -0.35700
C1107       C  0.86141047  0.04539213  0.85263136     0.16700
C1108       C  0.87067767  0.01955622  0.84092520     0.22500
C1109       C  0.89422968  0.00438696  0.85227763    -0.33800
C1110       C  0.90746633  0.01664149  0.87644131     0.16600
O1111       O  0.91326232  0.04849173  0.91259533    -0.25800
C1112       C  0.93138632  0.02619641  0.91543941     0.06400
C1113       C  0.92868349  0.00592019  0.89351330    -0.30700
O1114       O  0.85366599  0.01014498  0.82025997    -0.22500
C1115       C  0.83310264  0.03009414  0.81821610    -0.02500
C1116       C  0.83678465  0.05285365  0.83763765    -0.16900
H1117       H  0.86711441  0.07759885  0.88670791     0.21000
H1118       H  0.90089602  0.98372412  0.84366745     0.19400
H1119       H  0.94004749  0.98560942  0.89111470     0.19400
H1120       H  0.82245447  0.07097840  0.84146069     0.15200
C1121       C  0.96135627  0.15521171  0.13097917     0.30700
C1122       C  0.96148783  0.14941028  0.10109198    -0.35700
C1123       C  0.96170914  0.12010866  0.09309383     0.16700
C1124       C  0.96169497  0.09805372  0.11312696     0.22500
C1125       C  0.96103371  0.10385502  0.14292651    -0.33800
C1126       C  0.96092165  0.13307401  0.15090728     0.16600
O1127       O  0.96403236  0.18083926  0.14332856    -0.25800
C1128       C  0.96519409  0.17501255  0.17154866     0.06400
C1129       C  0.96314672  0.14563879  0.17745114    -0.30700
O1130       O  0.96465240  0.07236785  0.10109061    -0.22500
C1131       C  0.96642191  0.07787437  0.07288559    -0.02500
C1132       C  0.96456143  0.10725705  0.06664647    -0.16900
H1133       H  0.96269197  0.16651403  0.08521550     0.21000
H1134       H  0.96190690  0.08675685  0.15883178     0.19400
H1135       H  0.96491248  0.13497119  0.19819745     0.19400
H1136       H  0.96678095  0.11770904  0.04583392     0.15200
loop_ 
_geom_bond_atom_site_label_1 
_geom_bond_atom_site_label_2 
_geom_bond_distance 
_geom_bond_site_symmetry_2 
_ccdc_geom_bond_type 
O1           C17   1.270   1_565  A
O1           Zn7   1.977       .  S
C2           O18   1.267       .  A
C2           O15   1.274       .  A
C2         C1083   1.467       .  S
O3           C16   1.278       .  A
O3          Cd10   2.115       .  S
O4           C22   1.275       .  A
O4          Cd13   2.065   1_554  S
O5           C19   1.276       .  A
O5           Cd9   2.077   1_455  S
O6           C17   1.276       .  A
O6           Cd9   2.101       .  S
Zn7          O18   1.993   1_655  S
Zn7          O20   1.968       .  S
Zn7          O12   1.911   1_655  S
O8           C19   1.275       .  A
O8          Cd13   2.064   1_545  S
Cd9          O11   2.081   1_556  S
Cd9          O12   2.019   1_645  S
Cd10         O14   2.094   1_565  S
Cd10         O23   2.090   1_655  S
Cd10         O12   2.022   1_654  S
O11          C21   1.276       .  A
O12         Cd13   2.008       .  S
Cd13         O15   2.099       .  S
O14          C21   1.278       .  A
C16          O20   1.269   1_554  A
C16        C1051   1.469       .  S
C17        C1112   1.469       .  S
C19        C1064   1.469       .  S
C21        C1131   1.479       .  S
C22          O23   1.278       .  A
C22        C1099   1.472       .  S
O24          C40   1.270   1_655  A
O24         Zn30   2.003       .  S
C25          O41   1.271       .  A
C25          O38   1.276       .  A
C25         C984   1.467       .  S
O26          C39   1.276       .  A
O26         Cd33   2.108       .  S
O27          C45   1.277       .  A
O27         Cd36   2.091       .  S
O28          C42   1.276       .  A
O28         Cd32   2.077       .  S
O29          C40   1.276       .  A
O29         Cd32   2.100       .  S
Zn30         O41   1.974       .  S
Zn30         O43   1.988       .  S
Zn30         O35   1.910       .  S
O31          C42   1.277       .  A
O31         Cd36   2.081   1_455  S
Cd32         O34   2.074       .  S
Cd32         O35   2.008   1_455  S
Cd33         O37   2.066   1_655  S
Cd33         O46   2.079       .  S
Cd33         O35   2.015       .  S
O34          C44   1.276       .  A
O35         Cd36   2.017       .  S
Cd36         O38   2.095       .  S
O37          C44   1.276       .  A
C39          O43   1.269       .  A
C39        C1035   1.472       .  S
C40        C1016   1.468       .  S
C42        C1003   1.472       .  S
C44         C968   1.467       .  S
C45          O46   1.277       .  A
C45        C1128   1.478       .  S
O47          C63   1.270       .  A
O47         Zn53   1.966       .  S
C48          O64   1.268       .  A
C48          O61   1.272       .  A
C48         C904   1.464       .  S
O49          C62   1.276       .  A
O49         Cd56   2.106       .  S
O50          C68   1.273       .  A
O50         Cd59   2.053       .  S
O51          C65   1.278       .  A
O51         Cd55   2.099       .  S
O52          C63   1.277       .  A
O52         Cd55   2.110       .  S
Zn53         O64   2.000       .  S
Zn53         O66   1.994       .  S
Zn53         O58   1.912       .  S
O54          C65   1.274       .  A
O54         Cd59   2.057       .  S
Cd55         O57   2.096       .  S
Cd55         O58   2.025       .  S
Cd56         O60   2.086       .  S
Cd56         O69   2.076       .  S
Cd56         O58   2.018       .  S
O57          C67   1.280       .  A
O58         Cd59   2.006       .  S
Cd59         O61   2.084       .  S
O60          C67   1.277       .  A
C62          O66   1.272       .  A
C62        C1032   1.475       .  S
C63         C923   1.471       .  S
C65         C936   1.474       .  S
C67         C891   1.481       .  S
C68          O69   1.277       .  A
C68         C952   1.464       .  S
O70          C86   1.270   1_565  A
O70         Zn76   1.981       .  S
C71          O87   1.270       .  A
C71          O84   1.276       .  A
C71         C875   1.465       .  S
O72          C85   1.274       .  A
O72         Cd79   2.091       .  S
O73          C91   1.276       .  A
O73         Cd82   2.076       .  S
O74          C88   1.275       .  A
O74         Cd78   2.075       .  S
O75          C86   1.275       .  A
O75         Cd78   2.093       .  S
Zn76         O87   1.977       .  S
Zn76         O89   2.016       .  S
Zn76         O81   1.904   1_565  S
O77          C88   1.276       .  A
O77         Cd82   2.080   1_545  S
Cd78         O80   2.064       .  S
Cd78         O81   2.014       .  S
Cd79         O83   2.061   1_565  S
Cd79         O92   2.061       .  S
Cd79         O81   1.999   1_565  S
O80          C90   1.274       .  A
O81         Cd82   2.014   1_545  S
Cd82         O84   2.098       .  S
O83          C90   1.274       .  A
C85          O89   1.271       .  A
C85         C824   1.470       .  S
C86        C1115   1.464       .  S
C88         C840   1.473       .  S
C90         C955   1.463       .  S
C91          O92   1.275       .  A
C91         C856   1.467       .  S
O93         C109   1.273       .  A
O93         Zn99   1.992       .  S
C94         O110   1.269       .  A
C94         O107   1.274       .  A
C94         C760   1.465       .  S
O95         C108   1.275       .  A
O95        Cd102   2.092       .  S
O96         C114   1.275       .  A
O96        Cd105   2.068       .  S
O97         C111   1.276       .  A
O97        Cd101   2.077   1_545  S
O98         C109   1.276       .  A
O98        Cd101   2.098       .  S
Zn99        O110   1.983   1_565  S
Zn99        O112   2.010       .  S
Zn99        O104   1.912   1_565  S
O100        C111   1.275       .  A
O100       Cd105   2.072       .  S
Cd101       O103   2.080       .  S
Cd101       O104   2.016   1_565  S
Cd102       O106   2.069       .  S
Cd102       O115   2.069   1_565  S
Cd102       O104   2.006   1_565  S
O103        C113   1.276       .  A
O104       Cd105   2.016       .  S
Cd105       O107   2.096       .  S
O106        C113   1.275       .  A
C108        O112   1.271       .  A
C108        C792   1.468       .  S
C109        C808   1.472       .  S
C111        C779   1.471       .  S
C113       C1096   1.471       .  S
C114        O115   1.275       .  A
C114        C971   1.467       .  S
O116        C132   1.272       .  A
O116       Zn122   1.988       .  S
C117        O133   1.271   1_655  A
C117        O130   1.276       .  A
C117        C747   1.471       .  S
O118        C131   1.273       .  A
O118       Cd125   2.088       .  S
O119        C137   1.278       .  A
O119       Cd128   2.092       .  S
O120        C134   1.275       .  A
O120       Cd124   2.067   1_655  S
O121        C132   1.275       .  A
O121       Cd124   2.101       .  S
Zn122       O133   1.986       .  S
Zn122       O135   1.992       .  S
Zn122       O127   1.918   1_455  S
O123        C134   1.278       .  A
O123       Cd128   2.098       .  S
Cd124       O126   2.080       .  S
Cd124       O127   2.012   1_455  S
Cd125       O129   2.081       .  S
Cd125       O138   2.066   1_455  S
Cd125       O127   2.011   1_455  S
O126        C136   1.276       .  A
O127       Cd128   2.025       .  S
Cd128       O130   2.104       .  S
O129        C136   1.277       .  A
C131        O135   1.268       .  A
C131        C696   1.462       .  S
C132        C731   1.471       .  S
C134        C715   1.476       .  S
C136       C1019   1.475       .  S
C137        O138   1.275       .  A
C137        C907   1.472       .  S
O139        C155   1.270       .  A
O139       Zn145   1.994       .  S
C140        O156   1.269       .  A
C140        O153   1.276       .  A
C140        C664   1.471       .  S
O141        C154   1.276       .  A
O141       Cd148   2.109       .  S
O142        C160   1.277       .  A
O142       Cd151   2.083       .  S
O143        C157   1.276       .  A
O143       Cd147   2.069       .  S
O144        C155   1.274       .  A
O144       Cd147   2.096       .  S
Zn145       O156   1.969       .  S
Zn145       O158   1.987       .  S
Zn145       O150   1.899       .  S
O146        C157   1.277       .  A
O146       Cd151   2.083       .  S
Cd147       O149   2.074       .  S
Cd147       O150   2.008       .  S
Cd148       O152   2.080       .  S
Cd148       O161   2.078       .  S
Cd148       O150   2.011       .  S
O149        C159   1.276       .  A
O150       Cd151   2.022       .  S
Cd151       O153   2.108       .  S
O152        C159   1.276       .  A
C154        O158   1.271       .  A
C154        C632   1.476       .  S
C155        C680   1.468       .  S
C157        C651   1.471       .  S
C159        C939   1.472       .  S
C160        O161   1.277       .  A
C160        C843   1.474       .  S
O162        C178   1.270       .  A
O162       Zn168   1.998       .  S
C163        O179   1.270       .  A
C163        O176   1.275       .  A
C163        C872   1.472       .  S
O164        C177   1.277       .  A
O164       Cd171   2.112       .  S
O165        C183   1.275       .  A
O165       Cd174   2.063   1_554  S
O166        C180   1.277       .  A
O166       Cd170   2.074       .  S
O167        C178   1.274       .  A
O167       Cd170   2.086       .  S
Zn168       O179   1.977       .  S
Zn168       O181   1.984       .  S
Zn168       O173   1.906       .  S
O169        C180   1.276       .  A
O169       Cd174   2.083       .  S
Cd170       O172   2.071   1_556  S
Cd170       O173   2.000       .  S
Cd171       O175   2.094       .  S
Cd171       O184   2.085       .  S
Cd171       O173   2.019   1_554  S
O172        C182   1.275       .  A
O173       Cd174   2.019       .  S
Cd174       O176   2.107       .  S
O175        C182   1.278       .  A
C177        O181   1.271   1_554  A
C177       C1048   1.476       .  S
C178        C616   1.462       .  S
C180        C571   1.474       .  S
C182        C603   1.476       .  S
C183        O184   1.278       .  A
C183        C584   1.470       .  S
O185        C201   1.269       .  A
O185       Zn191   1.970       .  S
C186        O202   1.273       .  A
C186        O199   1.277       .  A
C186        C536   1.473       .  S
O187        C200   1.274       .  A
O187       Cd194   2.101       .  S
O188        C206   1.276       .  A
O188       Cd197   2.077   1_554  S
O189        C203   1.275       .  A
O189       Cd193   2.069       .  S
O190        C201   1.275       .  A
O190       Cd193   2.098       .  S
Zn191       O202   2.004       .  S
Zn191       O204   1.986   1_556  S
Zn191       O196   1.906   1_556  S
O192        C203   1.276       .  A
O192       Cd197   2.077       .  S
Cd193       O195   2.081   1_556  S
Cd193       O196   2.017   1_556  S
Cd194       O198   2.072       .  S
Cd194       O207   2.070       .  S
Cd194       O196   2.013       .  S
O195        C205   1.276       .  A
O196       Cd197   2.013   1_554  S
Cd197       O199   2.103       .  S
O198        C205   1.276       .  A
C200        O204   1.269       .  A
C200        C552   1.471       .  S
C201        C667   1.464       .  S
C203       C1067   1.469       .  S
C205        C776   1.472       .  S
C206        O207   1.277       .  A
C206       C1000   1.470       .  S
O208        C224   1.271       .  A
O208       Zn214   1.988       .  S
C209        O225   1.270       .  A
C209        O222   1.275       .  A
C209        C987   1.465       .  S
O210        C223   1.275       .  A
O210       Cd217   2.094       .  S
O211        C229   1.278       .  A
O211       Cd220   2.083       .  S
O212        C226   1.277       .  A
O212       Cd216   2.082       .  S
O213        C224   1.275       .  A
O213       Cd216   2.097       .  S
Zn214       O225   1.980       .  S
Zn214       O227   2.015       .  S
Zn214       O219   1.911       .  S
O215        C226   1.275       .  A
O215       Cd220   2.073       .  S
Cd216       O218   2.077       .  S
Cd216       O219   2.018       .  S
Cd217       O221   2.068       .  S
Cd217       O230   2.082       .  S
Cd217       O219   2.003       .  S
O218        C228   1.277       .  A
O219       Cd220   2.012       .  S
Cd220       O222   2.095       .  S
O221        C228   1.275       .  A
C223        O227   1.272       .  A
C223        C712   1.470       .  S
C224        C920   1.468       .  S
C226        C507   1.472       .  S
C228        C523   1.468       .  S
C229        O230   1.277       .  A
C229        C600   1.476       .  S
O231        C247   1.268       .  A
O231       Zn237   2.002       .  S
C232        O248   1.271       .  A
C232        O245   1.276       .  A
C232        C763   1.469       .  S
O233        C246   1.277       .  A
O233       Cd240   2.113       .  S
O234        C252   1.277       .  A
O234       Cd243   2.088       .  S
O235        C249   1.274       .  A
O235       Cd239   2.059   1_545  S
O236        C247   1.272       .  A
O236       Cd239   2.087       .  S
Zn237       O248   1.982   1_565  S
Zn237       O250   1.970       .  S
Zn237       O242   1.911       .  S
O238        C249   1.277       .  A
O238       Cd243   2.089       .  S
Cd239       O241   2.052       .  S
Cd239       O242   2.005       .  S
Cd240       O244   2.086       .  S
Cd240       O253   2.095   1_565  S
Cd240       O242   2.025       .  S
O241        C251   1.274       .  A
O242       Cd243   2.016   1_565  S
Cd243       O245   2.100       .  S
O244        C251   1.277       .  A
C246        O250   1.270       .  A
C246        C472   1.473       .  S
C247        C491   1.465       .  S
C249        C648   1.471       .  S
C251        C859   1.467       .  S
C252        O253   1.279       .  A
C252        C888   1.481       .  S
O254        C270   1.271       .  A
O254       Zn260   1.996   1_655  S
C255        O271   1.271       .  A
C255        O268   1.276       .  A
C255        C443   1.468       .  S
O256        C269   1.276       .  A
O256       Cd263   2.103       .  S
O257        C275   1.277       .  A
O257       Cd266   2.078       .  S
O258        C272   1.275       .  A
O258       Cd262   2.073       .  S
O259        C270   1.274       .  A
O259       Cd262   2.086       .  S
Zn260       O271   1.988       .  S
Zn260       O273   2.004       .  S
Zn260       O265   1.911   1_455  S
O261        C272   1.278       .  A
O261       Cd266   2.096   1_655  S
Cd262       O264   2.062       .  S
Cd262       O265   2.006       .  S
Cd263       O267   2.087   1_455  S
Cd263       O276   2.085       .  S
Cd263       O265   2.013   1_455  S
O264        C274   1.275       .  A
O265       Cd266   2.013   1_655  S
Cd266       O268   2.101       .  S
O267        C274   1.277       .  A
C269        O273   1.270       .  A
C269        C459   1.470       .  S
C270        C744   1.465       .  S
C272        C827   1.477       .  S
C274        C619   1.470       .  S
C275        O276   1.279       .  A
C275       C1080   1.474       .  S
O277        C293   1.269       .  A
O277       Zn283   1.974       .  S
C278        O294   1.270       .  A
C278        O291   1.274       .  A
C278        C424   1.465       .  S
O279        C292   1.275       .  A
O279       Cd286   2.099       .  S
O280        C298   1.274       .  A
O280       Cd289   2.065       .  S
O281        C295   1.277       .  A
O281       Cd285   2.079       .  S
O282        C293   1.276       .  A
O282       Cd285   2.107       .  S
Zn283       O294   1.999       .  S
Zn283       O296   1.980       .  S
Zn283       O288   1.901       .  S
O284        C295   1.276       .  A
O284       Cd289   2.077       .  S
Cd285       O287   2.079       .  S
Cd285       O288   2.018       .  S
Cd286       O290   2.072       .  S
Cd286       O299   2.076       .  S
Cd286       O288   2.016       .  S
O287        C297   1.276       .  A
O288       Cd289   2.002       .  S
Cd289       O291   2.092       .  S
O290        C297   1.276       .  A
C292        O296   1.270       .  A
C292        C475   1.468       .  S
C293        C811   1.467       .  S
C295        C408   1.472       .  S
C297        C587   1.471       .  S
C298        O299   1.276       .  A
C298        C520   1.468       .  S
O300        C316   1.271       .  A
O300       Zn306   1.979       .  S
C301        O317   1.270       .  A
C301        O314   1.276       .  A
C301        C728   1.468       .  S
O302        C315   1.275       .  A
O302       Cd309   2.093       .  S
O303        C321   1.276       .  A
O303       Cd312   2.073       .  S
O304        C318   1.278       .  A
O304       Cd308   2.092       .  S
O305        C316   1.277       .  A
O305       Cd308   2.112       .  S
Zn306       O317   1.983       .  S
Zn306       O319   1.998       .  S
Zn306       O311   1.906       .  S
O307        C318   1.277       .  A
O307       Cd312   2.073       .  S
Cd308       O310   2.085       .  S
Cd308       O311   2.018       .  S
Cd309       O313   2.072       .  S
Cd309       O322   2.077       .  S
Cd309       O311   2.004       .  S
O310        C320   1.277       .  A
O311       Cd312   2.011       .  S
Cd312       O314   2.100       .  S
O313        C320   1.277       .  A
C315        O319   1.270       .  A
C315        C395   1.465       .  S
C316        C440   1.473       .  S
C318        C795   1.476       .  S
C320        C488   1.473       .  S
C321        O322   1.275       .  A
C321        C427   1.471       .  S
O323        C339   1.269       .  A
O323       Zn329   1.976       .  S
C324        O340   1.269       .  A
C324        O337   1.278       .  A
C324        C379   1.475       .  S
O325        C338   1.277       .  A
O325       Cd332   2.121       .  S
O326        C344   1.277       .  A
O326       Cd335   2.076       .  S
O327        C341   1.277       .  A
O327       Cd331   2.081       .  S
O328        C339   1.275       .  A
O328       Cd331   2.107       .  S
Zn329       O340   1.967       .  S
Zn329       O342   1.967       .  S
Zn329       O334   1.891       .  S
O330        C341   1.276       .  A
O330       Cd335   2.078       .  S
Cd331       O333   2.064       .  S
Cd331       O334   2.012       .  S
Cd332       O336   2.089       .  S
Cd332       O345   2.091       .  S
Cd332       O334   2.026       .  S
O333        C343   1.276       .  A
O334       Cd335   2.012       .  S
Cd335       O337   2.117       .  S
O336        C343   1.278       .  A
C338        O342   1.268       .  A
C338        C539   1.476       .  S
C339        C683   1.472       .  S
C341        C392   1.473       .  S
C343        C699   1.471       .  S
C344        O345   1.278       .  A
C344        C456   1.475       .  S
O346        C362   1.267       .  A
O346       Zn352   1.971       .  S
C347        O363   1.272       .  A
C347        O360   1.275       .  A
C347        C555   1.470       .  S
O348        C361   1.276       .  A
O348       Cd355   2.098       .  S
O349        C367   1.276       .  A
O349       Cd358   2.074       .  S
O350        C364   1.278       .  A
O350       Cd354   2.082   1_554  S
O351        C362   1.277       .  A
O351       Cd354   2.118       .  S
Zn352       O363   2.005   1_556  S
Zn352       O365   1.986       .  S
Zn352       O357   1.911   1_556  S
O353        C364   1.276       .  A
O353       Cd358   2.071       .  S
Cd354       O356   2.081       .  S
Cd354       O357   2.023   1_556  S
Cd355       O359   2.082       .  S
Cd355       O368   2.081   1_556  S
Cd355       O357   2.020   1_556  S
O356        C366   1.277       .  A
O357       Cd358   2.009       .  S
Cd358       O360   2.097       .  S
O359        C366   1.277       .  A
C361        O365   1.271       .  A
C361        C376   1.468       .  S
C362        C635   1.471       .  S
C364        C504   1.471       .  S
C366        C568   1.474       .  S
C367        O368   1.276       .  A
C367        C411   1.473       .  S
C369        C374   1.380       .  A
C369        C370   1.394       .  A
C369        O375   1.311       .  A
C370        C371   1.394       .  A
C370        H381   1.080       .  S
C371        C380   1.349       .  A
C371        C372   1.380       .  A
C372        C373   1.412       .  A
C372        O378   1.328       .  A
C373        C374   1.412       .  A
C373        H382   1.080       .  S
C374        C377   1.373       .  A
O375        C376   1.327       .  A
C376        C377   1.396       .  A
C377        H383   1.082       .  S
O378        C379   1.335       .  A
C379        C380   1.389       .  A
C380        H384   1.082       .  S
C385        C390   1.380       .  A
C385        C386   1.403       .  A
C385        O391   1.318       .  A
C386        C387   1.402       .  A
C386        H397   1.081       .  S
C387        C396   1.362       .  A
C387        C388   1.380       .  A
C388        C389   1.406       .  A
C388        O394   1.320       .  A
C389        C390   1.405       .  A
C389        H398   1.081       .  S
C390        C393   1.365       .  A
O391        C392   1.331       .  A
C392        C393   1.393       .  A
C393        H399   1.082       .  S
O394        C395   1.331       .  A
C395        C396   1.389       .  A
C396        H400   1.082       .  S
C401        C406   1.380       .  A
C401        C402   1.403       .  A
C401        O407   1.319       .  A
C402        C403   1.403       .  A
C402        H413   1.082       .  S
C403        C412   1.362       .  A
C403        C404   1.380       .  A
C404        C405   1.404       .  A
C404        O410   1.320       .  A
C405        C406   1.404       .  A
C405        H414   1.082       .  S
C406        C409   1.363       .  A
O407        C408   1.331       .  A
C408        C409   1.392       .  A
C409        H415   1.082       .  S
O410        C411   1.332       .  A
C411        C412   1.392       .  A
C412        H416   1.082       .  S
C417        C422   1.381       .  A
C417        C418   1.401       .  A
C417        O423   1.317       .  A
C418        C419   1.400       .  A
C418        H429   1.082       .  S
C419        C428   1.359       .  A
C419        C420   1.380       .  A
C420        C421   1.406       .  A
C420        O426   1.321       .  A
C421        C422   1.406       .  A
C421        H430   1.082       .  S
C422        C425   1.366       .  A
O423        C424   1.329       .  A
C424        C425   1.392       .  A
C425        H431   1.082       .  S
O426        C427   1.332       .  A
C427        C428   1.390       .  A
C428        H432   1.082       .  S
C433        C438   1.380       .  A
C433        C434   1.413       .  A
C433        O439   1.328       .  A
C434        C435   1.412       .  A
C434        H445   1.082       .  S
C435        C444   1.373       .  A
C435        C436   1.381       .  A
C436        C437   1.394       .  A
C436        O442   1.311       .  A
C437        C438   1.394       .  A
C437        H446   1.082       .  S
C438        C441   1.350       .  A
O439        C440   1.335       .  A
C440        C441   1.387       .  A
C441        H447   1.083       .  S
O442        C443   1.326       .  A
C443        C444   1.396       .  A
C444        H448   1.082       .  S
C449        C454   1.380       .  A
C449        C450   1.407       .  A
C449        O455   1.322       .  A
C450        C451   1.406       .  A
C450        H461   1.082       .  S
C451        C460   1.367       .  A
C451        C452   1.380       .  A
C452        C453   1.404       .  A
C452        O458   1.319       .  A
C453        C454   1.403       .  A
C453        H462   1.082       .  S
C454        C457   1.362       .  A
O455        C456   1.332       .  A
C456        C457   1.392       .  A
C457        H463   1.082       .  S
O458        C459   1.331       .  A
C459        C460   1.392       .  A
C460        H464   1.082       .  S
C465        C470   1.380       .  A
C465        C466   1.414       .  A
C465        O471   1.329       .  A
C466        C467   1.414       .  A
C466        H477   1.081       .  S
C467        C476   1.375       .  A
C467        C468   1.381       .  A
C468        C469   1.391       .  A
C468        O474   1.308       .  A
C469        C470   1.391       .  A
C469        H478   1.081       .  S
C470        C473   1.346       .  A
O471        C472   1.336       .  A
C472        C473   1.386       .  A
C473        H479   1.082       .  S
O474        C475   1.325       .  A
C475        C476   1.398       .  A
C476        H480   1.082       .  S
C481        C486   1.380       .  A
C481        C482   1.406       .  A
C481        O487   1.322       .  A
C482        C483   1.406       .  A
C482        H493   1.081       .  S
C483        C492   1.365       .  A
C483        C484   1.381       .  A
C484        C485   1.402       .  A
C484        O490   1.318       .  A
C485        C486   1.401       .  A
C485        H494   1.081       .  S
C486        C489   1.359       .  A
O487        C488   1.332       .  A
C488        C489   1.391       .  A
C489        H495   1.082       .  S
O490        C491   1.330       .  A
C491        C492   1.391       .  A
C492        H496   1.082       .  S
C497        C502   1.380       .  A
C497        C498   1.403       .  A
C497        O503   1.318       .  A
C498        C499   1.402       .  A
C498        H509   1.082       .  S
C499        C508   1.363       .  A
C499        C500   1.380       .  A
C500        C501   1.404       .  A
C500        O506   1.318       .  A
C501        C502   1.403       .  A
C501        H510   1.082       .  S
C502        C505   1.364       .  A
O503        C504   1.331       .  A
C504        C505   1.392       .  A
C505        H511   1.082       .  S
O506        C507   1.331       .  A
C507        C508   1.392       .  A
C508        H512   1.082       .  S
C513        C518   1.381       .  A
C513        C514   1.402       .  A
C513        O519   1.317       .  A
C514        C515   1.401       .  A
C514        H525   1.082       .  S
C515        C524   1.361       .  A
C515        C516   1.381       .  A
C516        C517   1.403       .  A
C516        O522   1.318       .  A
C517        C518   1.402       .  A
C517        H526   1.082       .  S
C518        C521   1.362       .  A
O519        C520   1.330       .  A
C520        C521   1.391       .  A
C521        H527   1.082       .  S
O522        C523   1.331       .  A
C523        C524   1.391       .  A
C524        H528   1.082       .  S
C529        C534   1.381       .  A
C529        C530   1.395       .  A
C529        O535   1.313       .  A
C530        C531   1.395       .  A
C530        H541   1.082       .  S
C531        C540   1.349       .  A
C531        C532   1.380       .  A
C532        C533   1.414       .  A
C532        O538   1.330       .  A
C533        C534   1.414       .  A
C533        H542   1.081       .  S
C534        C537   1.374       .  A
O535        C536   1.327       .  A
C536        C537   1.397       .  A
C537        H543   1.082       .  S
O538        C539   1.336       .  A
C539        C540   1.388       .  A
C540        H544   1.083       .  S
C545        C550   1.381       .  A
C545        C546   1.410       .  A
C545        O551   1.326       .  A
C546        C547   1.410       .  A
C546        H557   1.081       .  S
C547        C556   1.370       .  A
C547        C548   1.381       .  A
C548        C549   1.398       .  A
C548        O554   1.315       .  A
C549        C550   1.397       .  A
C549        H558   1.080       .  S
C550        C553   1.354       .  A
O551        C552   1.333       .  A
C552        C553   1.388       .  A
C553        H559   1.082       .  S
O554        C555   1.328       .  A
C555        C556   1.394       .  A
C556        H560   1.082       .  S
C561        C566   1.380       .  A
C561        C562   1.401       .  A
C561        O567   1.317       .  A
C562        C563   1.400       .  A
C562        H573   1.082       .  S
C563        C572   1.359       .  A
C563        C564   1.380       .  A
C564        C565   1.407       .  A
C564        O570   1.322       .  A
C565        C566   1.407       .  A
C565        H574   1.082       .  S
C566        C569   1.366       .  A
O567        C568   1.330       .  A
C568        C569   1.395       .  A
C569        H575   1.082       .  S
O570        C571   1.333       .  A
C571        C572   1.390       .  A
C572        H576   1.082       .  S
C577        C582   1.381       .  A
C577        C578   1.402       .  A
C577        O583   1.319       .  A
C578        C579   1.402       .  A
C578        H589   1.082       .  S
C579        C588   1.360       .  A
C579        C580   1.380       .  A
C580        C581   1.403       .  A
C580        O586   1.320       .  A
C581        C582   1.403       .  A
C581        H590   1.082       .  S
C582        C585   1.360       .  A
O583        C584   1.330       .  A
C584        C585   1.393       .  A
C585        H591   1.082       .  S
O586        C587   1.331       .  A
C587        C588   1.391       .  A
C588        H592   1.082       .  S
C593        C598   1.380       .  A
C593        C594   1.406       .  A
C593        O599   1.321       .  A
C594        C595   1.405       .  A
C594        H605   1.082       .  S
C595        C604   1.365       .  A
C595        C596   1.380       .  A
C596        C597   1.405       .  A
C596        O602   1.319       .  A
C597        C598   1.403       .  A
C597        H606   1.082       .  S
C598        C601   1.363       .  A
O599        C600   1.332       .  A
C600        C601   1.392       .  A
C601        H607   1.082       .  S
O602        C603   1.332       .  A
C603        C604   1.393       .  A
C604        H608   1.082       .  S
C609        C614   1.381       .  A
C609        C610   1.400       .  A
C609        O615   1.317       .  A
C610        C611   1.400       .  A
C610        H621   1.082       .  S
C611        C620   1.357       .  A
C611        C612   1.380       .  A
C612        C613   1.405       .  A
C612        O618   1.321       .  A
C613        C614   1.405       .  A
C613        H622   1.082       .  S
C614        C617   1.364       .  A
O615        C616   1.329       .  A
C616        C617   1.390       .  A
C617        H623   1.082       .  S
O618        C619   1.332       .  A
C619        C620   1.390       .  A
C620        H624   1.082       .  S
C625        C630   1.379       .  A
C625        C626   1.415       .  A
C625        O631   1.329       .  A
C626        C627   1.414       .  A
C626        H637   1.081       .  S
C627        C636   1.377       .  A
C627        C628   1.380       .  A
C628        C629   1.395       .  A
C628        O634   1.310       .  A
C629        C630   1.393       .  A
C629        H638   1.082       .  S
C630        C633   1.351       .  A
O631        C632   1.337       .  A
C632        C633   1.387       .  A
C633        H639   1.082       .  S
O634        C635   1.327       .  A
C635        C636   1.397       .  A
C636        H640   1.082       .  S
C641        C646   1.381       .  A
C641        C642   1.402       .  A
C641        O647   1.319       .  A
C642        C643   1.402       .  A
C642        H653   1.082       .  S
C643        C652   1.359       .  A
C643        C644   1.381       .  A
C644        C645   1.404       .  A
C644        O650   1.320       .  A
C645        C646   1.404       .  A
C645        H654   1.082       .  S
C646        C649   1.360       .  A
O647        C648   1.330       .  A
C648        C649   1.393       .  A
C649        H655   1.082       .  S
O650        C651   1.331       .  A
C651        C652   1.391       .  A
C652        H656   1.082       .  S
C657        C662   1.380       .  A
C657        C658   1.412       .  A
C657        O663   1.327       .  A
C658        C659   1.412       .  A
C658        H669   1.082       .  S
C659        C668   1.374       .  A
C659        C660   1.381       .  A
C660        C661   1.392       .  A
C660        O666   1.308       .  A
C661        C662   1.391       .  A
C661        H670   1.082       .  S
C662        C665   1.347       .  A
O663        C664   1.335       .  A
C664        C665   1.387       .  A
C665        H671   1.083       .  S
O666        C667   1.325       .  A
C667        C668   1.395       .  A
C668        H672   1.082       .  S
C673        C678   1.381       .  A
C673        C674   1.395       .  A
C673        O679   1.313       .  A
C674        C675   1.395       .  A
C674        H685   1.082       .  S
C675        C684   1.351       .  A
C675        C676   1.380       .  A
C676        C677   1.411       .  A
C676        O682   1.327       .  A
C677        C678   1.411       .  A
C677        H686   1.082       .  S
C678        C681   1.371       .  A
O679        C680   1.327       .  A
C680        C681   1.395       .  A
C681        H687   1.082       .  S
O682        C683   1.335       .  A
C683        C684   1.387       .  A
C684        H688   1.083       .  S
C689        C694   1.381       .  A
C689        C690   1.402       .  A
C689        O695   1.319       .  A
C690        C691   1.401       .  A
C690        H701   1.082       .  S
C691        C700   1.358       .  A
C691        C692   1.380       .  A
C692        C693   1.404       .  A
C692        O698   1.321       .  A
C693        C694   1.405       .  A
C693        H702   1.081       .  S
C694        C697   1.363       .  A
O695        C696   1.329       .  A
C696        C697   1.390       .  A
C697        H703   1.082       .  S
O698        C699   1.332       .  A
C699        C700   1.391       .  A
C700        H704   1.082       .  S
C705        C710   1.381       .  A
C705        C706   1.403       .  A
C705        O711   1.320       .  A
C706        C707   1.403       .  A
C706        H717   1.082       .  S
C707        C716   1.359       .  A
C707        C708   1.380       .  A
C708        C709   1.407       .  A
C708        O714   1.324       .  A
C709        C710   1.407       .  A
C709        H718   1.082       .  S
C710        C713   1.365       .  A
O711        C712   1.330       .  A
C712        C713   1.391       .  A
C713        H719   1.082       .  S
O714        C715   1.333       .  A
C715        C716   1.392       .  A
C716        H720   1.082       .  S
C721        C726   1.381       .  A
C721        C722   1.394       .  A
C721        O727   1.310       .  A
C722        C723   1.393       .  A
C722        H733   1.081       .  S
C723        C732   1.349       .  A
C723        C724   1.380       .  A
C724        C725   1.413       .  A
C724        O730   1.328       .  A
C725        C726   1.412       .  A
C725        H734   1.081       .  S
C726        C729   1.373       .  A
O727        C728   1.326       .  A
C728        C729   1.396       .  A
C729        H735   1.082       .  S
O730        C731   1.335       .  A
C731        C732   1.386       .  A
C732        H736   1.082       .  S
C737        C742   1.381       .  A
C737        C738   1.395       .  A
C737        O743   1.312       .  A
C738        C739   1.394       .  A
C738        H749   1.083   1_655  S
C739        C748   1.351       .  A
C739        C740   1.380       .  A
C740        C741   1.410       .  A
C740        O746   1.326       .  A
C741        C742   1.410       .  A
C741        H750   1.082       .  S
C742        C745   1.370       .  A
O743        C744   1.326       .  A
C744        C745   1.394       .  A
C745        H751   1.082       .  S
O746        C747   1.334       .  A
C747        C748   1.387       .  A
C748        H752   1.083   1_655  S
C753        C758   1.381       .  A
C753        C754   1.393       .  A
C753        O759   1.309       .  A
C754        C755   1.392       .  A
C754        H765   1.082   1_545  S
C755        C764   1.350       .  A
C755        C756   1.380       .  A
C756        C757   1.412       .  A
C756        O762   1.326       .  A
C757        C758   1.411       .  A
C757        H766   1.082       .  S
C758        C761   1.373       .  A
O759        C760   1.325       .  A
C760        C761   1.396       .  A
C761        H767   1.082       .  S
O762        C763   1.335       .  A
C763        C764   1.386       .  A
C764        H768   1.083   1_545  S
C769        C774   1.380       .  A
C769        C770   1.404       .  A
C769        O775   1.320       .  A
C770        C771   1.404       .  A
C770        H781   1.082       .  S
C771        C780   1.362       .  A
C771        C772   1.381       .  A
C772        C773   1.403       .  A
C772        O778   1.319       .  A
C773        C774   1.402       .  A
C773        H782   1.082       .  S
C774        C777   1.360       .  A
O775        C776   1.332       .  A
C776        C777   1.391       .  A
C777        H783   1.082       .  S
O778        C779   1.331       .  A
C779        C780   1.392       .  A
C780        H784   1.082       .  S
C785        C790   1.381       .  A
C785        C786   1.405       .  A
C785        O791   1.322       .  A
C786        C787   1.405       .  A
C786        H797   1.081       .  S
C787        C796   1.362       .  A
C787        C788   1.380       .  A
C788        C789   1.405       .  A
C788        O794   1.321       .  A
C789        C790   1.405       .  A
C789        H798   1.081       .  S
C790        C793   1.362       .  A
O791        C792   1.331       .  A
C792        C793   1.390       .  A
C793        H799   1.082       .  S
O794        C795   1.332       .  A
C795        C796   1.393       .  A
C796        H800   1.082       .  S
C801        C806   1.380       .  A
C801        C802   1.413       .  A
C801        O807   1.327       .  A
C802        C803   1.412       .  A
C802        H813   1.081       .  S
C803        C812   1.375       .  A
C803        C804   1.381       .  A
C804        C805   1.393       .  A
C804        O810   1.308       .  A
C805        C806   1.392       .  A
C805        H814   1.082       .  S
C806        C809   1.349       .  A
O807        C808   1.336       .  A
C808        C809   1.386       .  A
C809        H815   1.083       .  S
O810        C811   1.325       .  A
C811        C812   1.396       .  A
C812        H816   1.082       .  S
C817        C822   1.380       .  A
C817        C818   1.407       .  A
C817        O823   1.322       .  A
C818        C819   1.406       .  A
C818        H829   1.082       .  S
C819        C828   1.366       .  A
C819        C820   1.380       .  A
C820        C821   1.404       .  A
C820        O826   1.319       .  A
C821        C822   1.403       .  A
C821        H830   1.082       .  S
C822        C825   1.363       .  A
O823        C824   1.332       .  A
C824        C825   1.390       .  A
C825        H831   1.082       .  S
O826        C827   1.332       .  A
C827        C828   1.393       .  A
C828        H832   1.082       .  S
C833        C838   1.380       .  A
C833        C834   1.404       .  A
C833        O839   1.320       .  A
C834        C835   1.403       .  A
C834        H845   1.082       .  S
C835        C844   1.362       .  A
C835        C836   1.380       .  A
C836        C837   1.404       .  A
C836        O842   1.320       .  A
C837        C838   1.404       .  A
C837        H846   1.082       .  S
C838        C841   1.363       .  A
O839        C840   1.332       .  A
C840        C841   1.392       .  A
C841        H847   1.082       .  S
O842        C843   1.332       .  A
C843        C844   1.392       .  A
C844        H848   1.083       .  S
C849        C854   1.381       .  A
C849        C850   1.401       .  A
C849        O855   1.319       .  A
C850        C851   1.401       .  A
C850        H861   1.082       .  S
C851        C860   1.358       .  A
C851        C852   1.381       .  A
C852        C853   1.401       .  A
C852        O858   1.319       .  A
C853        C854   1.401       .  A
C853        H862   1.082       .  S
C854        C857   1.358       .  A
O855        C856   1.330       .  A
C856        C857   1.391       .  A
C857        H863   1.082       .  S
O858        C859   1.330       .  A
C859        C860   1.391       .  A
C860        H864   1.082       .  S
C865        C870   1.380       .  A
C865        C866   1.413       .  A
C865        O871   1.328       .  A
C866        C867   1.412       .  A
C866        H877   1.083       .  S
C867        C876   1.374       .  A
C867        C868   1.381       .  A
C868        C869   1.392       .  A
C868        O874   1.308       .  A
C869        C870   1.391       .  A
C869        H878   1.084       .  S
C870        C873   1.347       .  A
O871        C872   1.336       .  A
C872        C873   1.386       .  A
C873        H879   1.083       .  S
O874        C875   1.325       .  A
C875        C876   1.396       .  A
C876        H880   1.082       .  S
C881        C886   1.380       .  A
C881        C882   1.405       .  A
C881        O887   1.321       .  A
C882        C883   1.404       .  A
C882        H893   1.082       .  S
C883        C892   1.364       .  A
C883        C884   1.380       .  A
C884        C885   1.408       .  A
C884        O890   1.323       .  A
C885        C886   1.407       .  A
C885        H894   1.082       .  S
C886        C889   1.367       .  A
O887        C888   1.332       .  A
C888        C889   1.395       .  A
C889        H895   1.082       .  S
O890        C891   1.334       .  A
C891        C892   1.393       .  A
C892        H896   1.082       .  S
C897        C902   1.381       .  A
C897        C898   1.404       .  A
C897        O903   1.318       .  A
C898        C899   1.403       .  A
C898        H909   1.081       .  S
C899        C908   1.364       .  A
C899        C900   1.380       .  A
C900        C901   1.404       .  A
C900        O906   1.318       .  A
C901        C902   1.403       .  A
C901        H910   1.081       .  S
C902        C905   1.364       .  A
O903        C904   1.330       .  A
C904        C905   1.389       .  A
C905        H911   1.082       .  S
O906        C907   1.331       .  A
C907        C908   1.391       .  A
C908        H912   1.082       .  S
C913        C918   1.381       .  A
C913        C914   1.392       .  A
C913        O919   1.310       .  A
C914        C915   1.392       .  A
C914        H925   1.082       .  S
C915        C924   1.346       .  A
C915        C916   1.380       .  A
C916        C917   1.412       .  A
C916        O922   1.328       .  A
C917        C918   1.413       .  A
C917        H926   1.082       .  S
C918        C921   1.373       .  A
O919        C920   1.326       .  A
C920        C921   1.397       .  A
C921        H927   1.082       .  S
O922        C923   1.335       .  A
C923        C924   1.387       .  A
C924        H928   1.083       .  S
C929        C934   1.381       .  A
C929        C930   1.405       .  A
C929        O935   1.322       .  A
C930        C931   1.405       .  A
C930        H941   1.082       .  S
C931        C940   1.363       .  A
C931        C932   1.381       .  A
C932        C933   1.401       .  A
C932        O938   1.318       .  A
C933        C934   1.401       .  A
C933        H942   1.082       .  S
C934        C937   1.358       .  A
O935        C936   1.332       .  A
C936        C937   1.392       .  A
C937        H943   1.083       .  S
O938        C939   1.330       .  A
C939        C940   1.393       .  A
C940        H944   1.082       .  S
C945        C950   1.381       .  A
C945        C946   1.402       .  A
C945        O951   1.316       .  A
C946        C947   1.401       .  A
C946        H957   1.082       .  S
C947        C956   1.360       .  A
C947        C948   1.381       .  A
C948        C949   1.400       .  A
C948        O954   1.316       .  A
C949        C950   1.399       .  A
C949        H958   1.082       .  S
C950        C953   1.359       .  A
O951        C952   1.330       .  A
C952        C953   1.389       .  A
C953        H959   1.082       .  S
O954        C955   1.329       .  A
C955        C956   1.391       .  A
C956        H960   1.082       .  S
C961        C966   1.381       .  A
C961        C962   1.401       .  A
C961        O967   1.318       .  A
C962        C963   1.401       .  A
C962        H973   1.082       .  S
C963        C972   1.359       .  A
C963        C964   1.381       .  A
C964        C965   1.402       .  A
C964        O970   1.318       .  A
C965        C966   1.402       .  A
C965        H974   1.082       .  S
C966        C969   1.360       .  A
O967        C968   1.330       .  A
C968        C969   1.391       .  A
C969        H975   1.083       .  S
O970        C971   1.331       .  A
C971        C972   1.390       .  A
C972        H976   1.083       .  S
C977        C982   1.380       .  A
C977        C978   1.410       .  A
C977        O983   1.325       .  A
C978        C979   1.409       .  A
C978        H989   1.081       .  S
C979        C988   1.371       .  A
C979        C980   1.381       .  A
C980        C981   1.394       .  A
C980        O986   1.310       .  A
C981        C982   1.393       .  A
C981        H990   1.082       .  S
C982        C985   1.349       .  A
O983        C984   1.333       .  A
C984        C985   1.387       .  A
C985        H991   1.082       .  S
O986        C987   1.326       .  A
C987        C988   1.394       .  A
C988        H992   1.082       .  S
C993        C998   1.380       .  A
C993        C994   1.404       .  A
C993        O999   1.319       .  A
C994        C995   1.404       .  A
C994       H1005   1.082       .  S
C995       C1004   1.363       .  A
C995        C996   1.381       .  A
C996        C997   1.403       .  A
C996       O1002   1.319       .  A
C997        C998   1.402       .  A
C997       H1006   1.082       .  S
C998       C1001   1.361       .  A
O999       C1000   1.331       .  A
C1000      C1001   1.391       .  A
C1001      H1007   1.082       .  S
O1002      C1003   1.331       .  A
C1003      C1004   1.392       .  A
C1004      H1008   1.082       .  S
C1009      C1014   1.380       .  A
C1009      C1010   1.405       .  A
C1009      O1015   1.319       .  A
C1010      C1011   1.403       .  A
C1010      H1021   1.082       .  S
C1011      C1020   1.364       .  A
C1011      C1012   1.380       .  A
C1012      C1013   1.406       .  A
C1012      O1018   1.320       .  A
C1013      C1014   1.405       .  A
C1013      H1022   1.082       .  S
C1014      C1017   1.366       .  A
O1015      C1016   1.331       .  A
C1016      C1017   1.392       .  A
C1017      H1023   1.082       .  S
O1018      C1019   1.332       .  A
C1019      C1020   1.392       .  A
C1020      H1024   1.082       .  S
C1025      C1030   1.380       .  A
C1025      C1026   1.414       .  A
C1025      O1031   1.328       .  A
C1026      C1027   1.414       .  A
C1026      H1037   1.081       .  S
C1027      C1036   1.376       .  A
C1027      C1028   1.381       .  A
C1028      C1029   1.395       .  A
C1028      O1034   1.311       .  A
C1029      C1030   1.394       .  A
C1029      H1038   1.082       .  S
C1030      C1033   1.351       .  A
O1031      C1032   1.336       .  A
C1032      C1033   1.387       .  A
C1033      H1039   1.082       .  S
O1034      C1035   1.327       .  A
C1035      C1036   1.397       .  A
C1036      H1040   1.082       .  S
C1041      C1046   1.379       .  A
C1041      C1042   1.414       .  A
C1041      O1047   1.328       .  A
C1042      C1043   1.413       .  A
C1042      H1053   1.080       .  S
C1043      C1052   1.376       .  A
C1043      C1044   1.380       .  A
C1044      C1045   1.394       .  A
C1044      O1050   1.309       .  A
C1045      C1046   1.393       .  A
C1045      H1054   1.080   1_554  S
C1046      C1049   1.350       .  A
O1047      C1048   1.336       .  A
C1048      C1049   1.388       .  A
C1049      H1055   1.082   1_554  S
O1050      C1051   1.326       .  A
C1051      C1052   1.397       .  A
C1052      H1056   1.081       .  S
C1057      C1062   1.380       .  A
C1057      C1058   1.405       .  A
C1057      O1063   1.320       .  A
C1058      C1059   1.404       .  A
C1058      H1069   1.081       .  S
C1059      C1068   1.363       .  A
C1059      C1060   1.381       .  A
C1060      C1061   1.401       .  A
C1060      O1066   1.317       .  A
C1061      C1062   1.400       .  A
C1061      H1070   1.081       .  S
C1062      C1065   1.358       .  A
O1063      C1064   1.332       .  A
C1064      C1065   1.390       .  A
C1065      H1071   1.082       .  S
O1066      C1067   1.330       .  A
C1067      C1068   1.393       .  A
C1068      H1072   1.082       .  S
C1073      C1078   1.380       .  A
C1073      C1074   1.404       .  A
C1073      O1079   1.319       .  A
C1074      C1075   1.404       .  A
C1074      H1085   1.082       .  S
C1075      C1084   1.363       .  A
C1075      C1076   1.380       .  A
C1076      C1077   1.405       .  A
C1076      O1082   1.321       .  A
C1077      C1078   1.404       .  A
C1077      H1086   1.082       .  S
C1078      C1081   1.364       .  A
O1079      C1080   1.331       .  A
C1080      C1081   1.392       .  A
C1081      H1087   1.082       .  S
O1082      C1083   1.332       .  A
C1083      C1084   1.390       .  A
C1084      H1088   1.082       .  S
C1089      C1094   1.380       .  A
C1089      C1090   1.403       .  A
C1089      O1095   1.320       .  A
C1090      C1091   1.403       .  A
C1090      H1101   1.081       .  S
C1091      C1100   1.361       .  A
C1091      C1092   1.381       .  A
C1092      C1093   1.403       .  A
C1092      O1098   1.320       .  A
C1093      C1094   1.403       .  A
C1093      H1102   1.081       .  S
C1094      C1097   1.361       .  A
O1095      C1096   1.331       .  A
C1096      C1097   1.392       .  A
C1097      H1103   1.082       .  S
O1098      C1099   1.331       .  A
C1099      C1100   1.392       .  A
C1100      H1104   1.082       .  S
C1105      C1110   1.380       .  A
C1105      C1106   1.411       .  A
C1105      O1111   1.326       .  A
C1106      C1107   1.410       .  A
C1106      H1117   1.081       .  S
C1107      C1116   1.372       .  A
C1107      C1108   1.381       .  A
C1108      C1109   1.394       .  A
C1108      O1114   1.309       .  A
C1109      C1110   1.393       .  A
C1109      H1118   1.081   1_545  S
C1110      C1113   1.350       .  A
O1111      C1112   1.334       .  A
C1112      C1113   1.387       .  A
C1113      H1119   1.082   1_545  S
O1114      C1115   1.326       .  A
C1115      C1116   1.395       .  A
C1116      H1120   1.082       .  S
C1121      C1126   1.380       .  A
C1121      C1122   1.407       .  A
C1121      O1127   1.323       .  A
C1122      C1123   1.407       .  A
C1122      H1133   1.082       .  S
C1123      C1132   1.366       .  A
C1123      C1124   1.380       .  A
C1124      C1125   1.404       .  A
C1124      O1130   1.321       .  A
C1125      C1126   1.403       .  A
C1125      H1134   1.082       .  S
C1126      C1129   1.362       .  A
O1127      C1128   1.334       .  A
C1128      C1129   1.392       .  A
C1129      H1135   1.083       .  S
O1130      C1131   1.331       .  A
C1131      C1132   1.395       .  A
C1132      H1136   1.082       .  S
