geometry optimzed in LAMMPS
_audit_creation_date              2020-11-30 
_audit_creation_method            'lammps2cif' 
_symmetry_space_group_name_H-M    'P1' 
_symmetry_Int_Tables_number       1 
_symmetry_cell_setting            triclinic 
loop_ 
_symmetry_equiv_pos_as_xyz 
  x,y,z 
_cell_length_a                    47.22281772 
_cell_length_b                    47.15800685041199 
_cell_length_c                    29.414746938016886 
_cell_angle_alpha                 72.72172798797776 
_cell_angle_beta                  73.0158804734924 
_cell_angle_gamma                 86.17321793130355 
loop_ 
_atom_site_label 
_atom_site_type_symbol 
_atom_site_fract_x 
_atom_site_fract_y 
_atom_site_fract_z 
_atom_site_charge 
N1          N  0.15961239  0.52272206  0.21355502    -0.03200
C2          C  0.18903022  0.02578950  0.20702827    -0.00600
C3          C  0.20493072  0.02799547  0.15848306    -0.23500
C4          C  0.18462665  0.02669852  0.13392300    -0.23700
C5          C  0.15705507  0.52380492  0.16829676    -0.00700
H6          H  0.22876971  0.02932030  0.14306771     0.13000
H7          H  0.18943345  0.02737039  0.09531018     0.13100
N8          N  0.27715091  0.01107922  0.35284099    -0.03200
C9          C  0.24768318  0.00881426  0.35894553    -0.00600
C10         C  0.23169160  0.00674333  0.40737321    -0.23500
C11         C  0.25196098  0.00730826  0.43232811    -0.23700
C12         C  0.27962425  0.01020889  0.39808166    -0.00700
H13         H  0.20783779  0.00562701  0.42260985     0.13000
H14         H  0.24704794  0.00593280  0.47124782     0.13100
N15         N  0.46753124  0.20472052  0.21656019    -0.03200
C16         C  0.46669252  0.23422172  0.21185669    -0.00600
C17         C  0.46690042  0.25030109  0.16400830    -0.23500
C18         C  0.46731773  0.22993999  0.13868001    -0.23700
C19         C  0.46766344  0.20224900  0.17185574    -0.00700
H20         H  0.46708323  0.27422390  0.14899009     0.13000
H21         H  0.46712491  0.23474858  0.10043326     0.13100
N22         N  0.47707668  0.32173671  0.34683663    -0.03200
C23         C  0.47756124  0.29196074  0.35345466    -0.00600
C24         C  0.47754141  0.27685947  0.40161113    -0.23500
C25         C  0.47720852  0.29798571  0.42536817    -0.23700
C26         C  0.47699891  0.32521937  0.39094946    -0.00700
H27         H  0.47662445  0.25304038  0.41828402     0.13000
H28         H  0.47637824  0.29394314  0.46393471     0.13100
C29         C  0.05713699  0.01586150  0.09784502     0.42700
N30         N  0.02960699  0.50264422  0.06096763     0.01600
C31         C  0.44024742  0.09247065  0.42972992    -0.06300
H32         H  0.41492201  0.08965077  0.11726315     0.07100
C33         C  0.38812086  0.48115749  0.16566961    -0.06600
Co34       Co  0.00402966  0.05489220  0.00039038     0.74200
N35         N  0.44913105  0.07186629  0.06731904    -0.25800
Co36       Co  0.42746525  0.04841953  0.03698757     0.74100
C37         C  0.37312098  0.00670711  0.18026217     0.42800
N38         N  0.45709731  0.44953095  0.11698305     0.01200
N39         N  0.40469670  0.02191713  0.10792738     0.01300
N40         N  0.49012758  0.09640722  0.40734964    -0.46700
H41         H  0.04836918  0.06537137  0.06568813     0.07100
N42         N  0.47826498  0.07443243  0.05320940     0.01600
N43         N  0.40740439  0.02362586  0.50655563     0.01300
C44         C  0.38253837  0.01022101  0.46550167     0.42900
N45         N  0.48627000  0.45210524  0.10181963    -0.25300
C46         C  0.04787471  0.04646186  0.40367139    -0.06200
N47         N  0.04719052  0.49220680  0.08963677    -0.46400
N48         N  0.39149004  0.03393497  0.47505951    -0.46600
C49         C  0.06327517  0.02144804  0.38818979     0.42700
N50         N  0.47968789  0.07719785  0.45193941     0.01600
N51         N  0.48705290  0.45481751  0.50103512    -0.25300
N52         N  0.02752032  0.03180144  0.04949643    -0.25800
N53         N  0.45792505  0.45206697  0.01608975     0.01200
H54         H  0.02087575  0.43598311  0.45204849     0.07100
H55         H  0.38954702  0.46066829  0.50135955     0.07200
N56         N  0.45055351  0.07457207  0.46600962    -0.25800
N57         N  0.40692274  0.99273731  0.12033669    -0.25400
N58         N  0.03158710  0.50510598  0.46005036     0.01600
C59         C  0.46419579  0.09967219  0.10560477     0.43000
C60         C  0.49716344  0.43399402  0.13704655    -0.06700
N61         N  0.40902369  0.99442914  0.01923460    -0.25400
H62         H  0.38489250  0.45771858  0.18506079     0.07500
N63         N  0.48811638  0.09105973  0.07476762    -0.46700
H64         H  0.02042729  0.43056403  0.13410511     0.07100
C65         C  0.47144992  0.42608872  0.46486831     0.42800
C66         C  0.04409483  0.04217958  0.07125477    -0.06200
Co67       Co  0.00905594  0.47822931  0.03085129     0.73800
N68         N  0.44720791  0.42996190  0.16144233    -0.46400
C69         C  0.46658326  0.10687434  0.39045689     0.43100
N70         N  0.05172472  0.49651329  0.42489453    -0.46400
Co71       Co  0.43230608  0.47167979  0.06887660     0.73900
C72         C  0.39375501  0.48391126  0.49558626    -0.06700
C73         C  0.43819628  0.08708375  0.10032062    -0.06300
N74         N  0.02919059  0.03424605  0.44866473    -0.25800
N75         N  0.38487306  0.03114360  0.14265260    -0.46600
H76         H  0.41710854  0.09571947  0.43152994     0.07100
C77         C  0.49767530  0.43922557  0.46847375    -0.06700
Cl78       Cl  0.46821316  0.01330161  0.03434115    -0.49700
C79         C  0.47126299  0.41939715  0.17684363     0.42900
H80         H  0.05081203  0.07001547  0.38523313     0.07100
N81         N  0.44777675  0.43512722  0.49542838    -0.46400
C82         C  0.44869940  0.35785412  0.43887516    -0.08900
C83         C  0.47434456  0.35349710  0.40337369     0.07300
C84         C  0.49798463  0.37421258  0.38548987    -0.02700
C85         C  0.49606763  0.39827834  0.40474547    -0.07100
C86         C  0.47087253  0.40208524  0.44205837     0.06400
C87         C  0.44657891  0.38187598  0.45816350    -0.02200
Br88       Br  0.41050224  0.38375097  0.50862515    -0.01800
H89         H  0.43049574  0.34182381  0.45288690     0.10300
H90         H  0.51476971  0.41364106  0.39126496     0.08300
Br91       Br  0.53430682  0.36935799  0.33827376    -0.02300
C92         C  0.45010207  0.36328986  0.30606746    -0.08900
C93         C  0.47494510  0.34509760  0.30331200     0.07300
C94         C  0.49790361  0.35088261  0.25847884    -0.02700
C95         C  0.49606702  0.37489573  0.21787796    -0.07100
C96         C  0.47138508  0.39344929  0.22053745     0.06400
C97         C  0.44803105  0.38716488  0.26524458    -0.02200
Br98       Br  0.41362056  0.41127937  0.27417436    -0.01800
H99         H  0.43234215  0.35897223  0.34045632     0.10300
H100        H  0.51420103  0.37903282  0.18402460     0.08300
Br101      Br  0.53308075  0.32781729  0.25172817    -0.02300
C102        C  0.99296441  0.16419166  0.26271272    -0.08900
C103        C  0.46732266  0.18060161  0.26042104     0.07300
C104        C  0.44164810  0.17279018  0.30074135    -0.02700
C105        C  0.44189316  0.14887825  0.34250660    -0.07100
C106        C  0.46753337  0.13213252  0.34508032     0.06400
C107        C  0.99329288  0.14003684  0.30412516    -0.02200
Br108      Br  0.02923733  0.11812355  0.30042962    -0.01800
H109        H  0.01289062  0.17028219  0.23195760     0.10300
H110        H  0.42183025  0.14353179  0.37311363     0.08300
Br111      Br  0.40553943  0.19365339  0.29952988    -0.02300
C112        C  0.99103417  0.15706352  0.15212450    -0.08900
C113        C  0.46581302  0.17424764  0.16047226     0.07300
C114        C  0.43963372  0.16580775  0.15402462    -0.02700
C115        C  0.43922481  0.14091776  0.13775133    -0.07100
C116        C  0.46475003  0.12403635  0.12763813     0.06400
C117        C  0.99063392  0.13186475  0.13655035    -0.02200
Br118      Br  0.02601223  0.10905218  0.12958121    -0.01800
H119        H  0.01136113  0.16363754  0.15655405     0.10300
H120        H  0.41901856  0.13542912  0.13167200     0.08300
Br121      Br  0.40405706  0.18801369  0.16623031    -0.02300
C122        C  0.49068423  0.23997051  0.27308294    -0.08900
C123        C  0.46793828  0.24785491  0.25033129     0.07300
C124        C  0.44815100  0.27011861  0.26202451    -0.02700
C125        C  0.45190388  0.28458481  0.29506083    -0.07100
C126        C  0.47499044  0.27704114  0.31719257     0.06400
C127        C  0.49421257  0.25412738  0.30659069    -0.02200
Br128      Br  0.02670635  0.24219603  0.33441969    -0.01800
H129        H  0.00634280  0.22330895  0.26370430     0.10300
H130        H  0.43630175  0.30131675  0.30435707     0.08300
Br131      Br  0.41466309  0.28047093  0.23632168    -0.02300
C132        C  0.32963257  0.99124613  0.40237385    -0.08900
C133        C  0.30738433  0.01188295  0.41072751     0.07300
C134        C  0.31099257  0.03288602  0.43424374    -0.02700
C135        C  0.33605260  0.03238578  0.45031033    -0.07100
C136        C  0.35775059  0.01096680  0.44408938     0.06400
C137        C  0.35475745  0.99062771  0.41880003    -0.02200
Br138      Br  0.38454999  0.96237320  0.40381148    -0.01800
H139        H  0.32714382  0.97511502  0.38409486     0.10300
H140        H  0.33814968  0.04845137  0.46896633     0.08300
Br141      Br  0.28281138  0.06337800  0.44436029    -0.02300
C142        C  0.34564320  0.03172851  0.24346009    -0.08900
C143        C  0.34784149  0.00730685  0.22447652     0.07300
C144        C  0.32524733  0.98501638  0.24710412    -0.02700
C145        C  0.30236263  0.98672137  0.28909872    -0.07100
C146        C  0.30083034  0.01060677  0.30887043     0.06400
C147        C  0.32235266  0.03363210  0.28487420    -0.02200
Br148      Br  0.31965402  0.06907722  0.30487057    -0.01800
H149        H  0.36209469  0.04958202  0.22581741     0.10300
H150        H  0.28538725  0.96936519  0.30638695     0.08300
Br151      Br  0.32219336  0.95324711  0.22035025    -0.02300
C152        C  0.13375086  0.04471646  0.28003022    -0.08900
C153        C  0.13602346  0.02157561  0.25838651     0.07300
C154        C  0.11545567  0.49763830  0.28158929    -0.02700
C155        C  0.09207958  0.49815439  0.32365263    -0.07100
C156        C  0.08892164  0.02200438  0.34409806     0.06400
C157        C  0.11074836  0.04508571  0.32257263    -0.02200
Br158      Br  0.11259476  0.07638235  0.35109159    -0.01800
H159        H  0.15009181  0.06268619  0.26347229     0.10300
H160        H  0.07628718  0.47969597  0.34058072     0.08300
Br161      Br  0.11971246  0.46260091  0.26020929    -0.02300
C162        C  0.12727564  0.99665040  0.13798990    -0.08900
C163        C  0.12955870  0.02044724  0.15617824     0.07300
C164        C  0.10750153  0.04196906  0.15665497    -0.02700
C165        C  0.08355429  0.03924955  0.13928755    -0.07100
C166        C  0.08139010  0.01567675  0.12029709     0.06400
C167        C  0.10348755  0.99392058  0.12035421    -0.02200
Br168      Br  0.10451812  0.96136337  0.09321677    -0.01800
H169        H  0.14459087  0.98036607  0.13649876     0.10300
H170        H  0.06695735  0.05620736  0.13932364     0.08300
Br171      Br  0.11063321  0.57719573  0.17485756    -0.02300
C172        C  0.19709470  0.49678436  0.28725006    -0.08900
C173        C  0.20310550  0.02256331  0.24684641     0.07300
C174        C  0.22454526  0.04331841  0.24269476    -0.02700
C175        C  0.23973124  0.03790848  0.27860422    -0.07100
C176        C  0.23371335  0.01210507  0.31899564     0.06400
C177        C  0.21218773  0.49143079  0.32322691    -0.02200
Br178      Br  0.20369217  0.45483305  0.37591336    -0.01800
H179        H  0.18117711  0.48035997  0.29011655     0.10300
H180        H  0.25566306  0.05431042  0.27578198     0.08300
Br181      Br  0.23264955  0.08011571  0.19038893    -0.02300
N182        N  0.15961238  0.52272215  0.71355497    -0.03200
C183        C  0.18903025  0.02578941  0.70702837    -0.00600
C184        C  0.20493078  0.02799534  0.65848318    -0.23500
C185        C  0.18462673  0.02669845  0.63392305    -0.23700
C186        C  0.15705504  0.52380500  0.66829674    -0.00700
H187        H  0.22876977  0.02932011  0.64306789     0.13000
H188        H  0.18943355  0.02737032  0.59531024     0.13100
N189        N  0.27715089  0.01107920  0.85284111    -0.03200
C190        C  0.24768316  0.00881428  0.85894565    -0.00600
C191        C  0.23169160  0.00674334  0.90737334    -0.23500
C192        C  0.25196099  0.00730822  0.93232825    -0.23700
C193        C  0.27962425  0.01020884  0.89808178    -0.00700
H194        H  0.20783778  0.00562704  0.92260999     0.13000
H195        H  0.24704795  0.00593274  0.97124796     0.13100
N196        N  0.46753123  0.20472054  0.71656013    -0.03200
C197        C  0.46669255  0.23422174  0.71185660    -0.00600
C198        C  0.46690042  0.25030111  0.66400823    -0.23500
C199        C  0.46731765  0.22994000  0.63867999    -0.23700
C200        C  0.46766335  0.20224902  0.67185571    -0.00700
H201        H  0.46708323  0.27422391  0.64899002     0.13000
H202        H  0.46712480  0.23474860  0.60043322     0.13100
N203        N  0.47707672  0.32173670  0.84683655    -0.03200
C204        C  0.47756128  0.29196072  0.85345463    -0.00600
C205        C  0.47754150  0.27685948  0.90161109    -0.23500
C206        C  0.47720862  0.29798574  0.92536808    -0.23700
C207        C  0.47699899  0.32521939  0.89094934    -0.00700
H208        H  0.47662454  0.25304039  0.91828401     0.13000
H209        H  0.47637837  0.29394320  0.96393459     0.13100
C210        C  0.05713703  0.01586159  0.59784497     0.42700
N211        N  0.02960698  0.50264419  0.56096765     0.01600
C212        C  0.44024745  0.09247063  0.92972987    -0.06300
H213        H  0.41492193  0.08965075  0.61726318     0.07100
C214        C  0.38812083  0.48115747  0.66566972    -0.06600
Co215      Co  0.00402963  0.05489223  0.50039040     0.74200
N216        N  0.44913098  0.07186629  0.56731908    -0.25800
Co217      Co  0.42746520  0.04841951  0.53698761     0.74100
C218        C  0.37312093  0.00670709  0.68026223     0.42800
N219        N  0.45709725  0.44953092  0.61698307     0.01200
N220        N  0.40469665  0.02191711  0.60792743     0.01300
N221        N  0.49012759  0.09640721  0.90734955    -0.46700
H222        H  0.04836912  0.06537145  0.56568817     0.07100
N223        N  0.47826491  0.07443243  0.55320949     0.01600
N224        N  0.40740441  0.02362591  0.00655559     0.01300
C225        C  0.38253839  0.01022110  0.96550160     0.42900
N226        N  0.48626994  0.45210523  0.60181967    -0.25300
C227        C  0.04787470  0.04646180  0.90367135    -0.06200
N228        N  0.04719051  0.49220678  0.58963679    -0.46400
N229        N  0.39149006  0.03393505  0.97505948    -0.46600
C230        C  0.06327515  0.02144799  0.88818975     0.42700
N231        N  0.47968791  0.07719786  0.95193934     0.01600
N232        N  0.48705294  0.45481751  0.00103508    -0.25300
N233        N  0.02752030  0.03180150  0.54949647    -0.25800
N234        N  0.45792501  0.45206697  0.51608979     0.01200
H235        H  0.02087577  0.43598310  0.95204845     0.07100
H236        H  0.38954702  0.46066826  0.00135960     0.07200
N237        N  0.45055354  0.07457209  0.96600958    -0.25800
N238        N  0.40692272  0.99273729  0.62033676    -0.25400
N239        N  0.03158709  0.50510601  0.96005033     0.01600
C240        C  0.46419569  0.09967215  0.60560491     0.43000
C241        C  0.49716339  0.43399397  0.63704656    -0.06700
N242        N  0.40902367  0.99442909  0.51923468    -0.25400
H243        H  0.38489248  0.45771862  0.68506088     0.07500
N244        N  0.48811630  0.09105971  0.57476777    -0.46700
H245        H  0.02042726  0.43056400  0.63410508     0.07100
C246        C  0.47144996  0.42608871  0.96486828     0.42800
C247        C  0.04409481  0.04217966  0.57125480    -0.06200
Co248      Co  0.00905593  0.47822930  0.53085132     0.73800
N249        N  0.44720785  0.42996183  0.66144230    -0.46400
C250        C  0.46658327  0.10687432  0.89045681     0.43100
N251        N  0.05172470  0.49651333  0.92489448    -0.46400
Co252      Co  0.43230604  0.47167978  0.56887665     0.73900
C253        C  0.39375503  0.48391128  0.99558625    -0.06700
C254        C  0.43819617  0.08708374  0.60032068    -0.06300
N255        N  0.02919059  0.03424603  0.94866469    -0.25800
N256        N  0.38487299  0.03114358  0.64265264    -0.46600
H257        H  0.41710855  0.09571943  0.93152991     0.07100
C258        C  0.49767534  0.43922556  0.96847373    -0.06700
Cl259      Cl  0.46821313  0.01330160  0.53434123    -0.49700
C260        C  0.47126293  0.41939707  0.67684359     0.42900
H261        H  0.05081202  0.07001544  0.88523304     0.07100
N262        N  0.44777679  0.43512723  0.99542834    -0.46400
C263        C  0.44869946  0.35785409  0.93887516    -0.08900
C264        C  0.47434461  0.35349714  0.90337356     0.07300
C265        C  0.49798464  0.37421265  0.88548969    -0.02700
C266        C  0.49606764  0.39827841  0.90474532    -0.07100
C267        C  0.47087256  0.40208525  0.94205834     0.06400
C268        C  0.44657899  0.38187593  0.95816358    -0.02200
Br269      Br  0.41050244  0.38375073  0.00862559    -0.01800
H270        H  0.43049586  0.34182376  0.95288696     0.10300
H271        H  0.51476967  0.41364116  0.89126477     0.08300
Br272      Br  0.53430682  0.36935814  0.83827350    -0.02300
C273        C  0.45010204  0.36328979  0.80606741    -0.08900
C274        C  0.47494510  0.34509756  0.80331191     0.07300
C275        C  0.49790359  0.35088256  0.75847874    -0.02700
C276        C  0.49606696  0.37489566  0.71787787    -0.07100
C277        C  0.47138502  0.39344921  0.72053738     0.06400
C278        C  0.44803100  0.38716481  0.76524452    -0.02200
Br279      Br  0.41362051  0.41127930  0.77417430    -0.01800
H280        H  0.43234215  0.35897217  0.84045627     0.10300
H281        H  0.51420096  0.37903276  0.68402447     0.08300
Br282      Br  0.53308074  0.32781727  0.75172799    -0.02300
C283        C  0.99296441  0.16419172  0.76271283    -0.08900
C284        C  0.46732266  0.18060164  0.76042099     0.07300
C285        C  0.44164805  0.17279006  0.80074116    -0.02700
C286        C  0.44189310  0.14887811  0.84250639    -0.07100
C287        C  0.46753338  0.13213250  0.84508023     0.06400
C288        C  0.99329290  0.14003691  0.80412526    -0.02200
Br289      Br  0.02923740  0.11812372  0.80042977    -0.01800
H290        H  0.01289064  0.17028232  0.73195775     0.10300
H291        H  0.42183014  0.14353155  0.87311330     0.08300
Br292      Br  0.40553932  0.19365313  0.79952958    -0.02300
C293        C  0.99103397  0.15706334  0.65212497    -0.08900
C294        C  0.46581289  0.17424766  0.66047225     0.07300
C295        C  0.43963368  0.16580798  0.65402403    -0.02700
C296        C  0.43922477  0.14091797  0.63775078    -0.07100
C297        C  0.46474989  0.12403634  0.62763821     0.06400
C298        C  0.99063370  0.13186457  0.63655083    -0.02200
Br299      Br  0.02601187  0.10905179  0.62958219    -0.01800
H300        H  0.01136088  0.16363726  0.65655475     0.10300
H301        H  0.41901861  0.13542949  0.63167100     0.08300
Br302      Br  0.40405714  0.18801417  0.66622896    -0.02300
C303        C  0.49068430  0.23997057  0.77308277    -0.08900
C304        C  0.46793832  0.24785492  0.75033120     0.07300
C305        C  0.44815099  0.27011855  0.76202455    -0.02700
C306        C  0.45190386  0.28458472  0.79506092    -0.07100
C307        C  0.47499044  0.27704109  0.81719258     0.06400
C308        C  0.49421262  0.25412738  0.80659059    -0.02200
Br309      Br  0.02670659  0.24219611  0.83441924    -0.01800
H310        H  0.00634296  0.22330901  0.76370398     0.10300
H311        H  0.43630168  0.30131663  0.80435725     0.08300
Br312      Br  0.41466303  0.28047081  0.73632182    -0.02300
C313        C  0.32963260  0.99124617  0.90237382    -0.08900
C314        C  0.30738434  0.01188294  0.91072757     0.07300
C315        C  0.31099257  0.03288605  0.93424373    -0.02700
C316        C  0.33605262  0.03238587  0.95031025    -0.07100
C317        C  0.35775064  0.01096691  0.94408927     0.06400
C318        C  0.35475751  0.99062783  0.91879988    -0.02200
Br319      Br  0.38455013  0.96237343  0.90381106    -0.01800
H320        H  0.32714387  0.97511507  0.88409485     0.10300
H321        H  0.33814969  0.04845146  0.96896623     0.08300
Br322      Br  0.28281136  0.06337803  0.94436020    -0.02300
C323        C  0.34564318  0.03172849  0.74346017    -0.08900
C324        C  0.34784145  0.00730683  0.72447660     0.07300
C325        C  0.32524729  0.98501636  0.74710420    -0.02700
C326        C  0.30236260  0.98672134  0.78909883    -0.07100
C327        C  0.30083031  0.01060674  0.80887055     0.06400
C328        C  0.32235263  0.03363207  0.78487431    -0.02200
Br329      Br  0.31965398  0.06907720  0.80487066    -0.01800
H330        H  0.36209465  0.04958198  0.72581750     0.10300
H331        H  0.28538722  0.96936516  0.80638706     0.08300
Br332      Br  0.32219330  0.95324713  0.72035026    -0.02300
C333        C  0.13375089  0.04471640  0.78003028    -0.08900
C334        C  0.13602346  0.02157557  0.75838651     0.07300
C335        C  0.11545573  0.49763834  0.78158933    -0.02700
C336        C  0.09207964  0.49815443  0.82365267    -0.07100
C337        C  0.08892163  0.02200431  0.84409804     0.06400
C338        C  0.11074836  0.04508562  0.82257270    -0.02200
Br339      Br  0.11259476  0.07638223  0.85109174    -0.01800
H340        H  0.15009184  0.06268608  0.76347245     0.10300
H341        H  0.07628727  0.47969597  0.84058081     0.08300
Br342      Br  0.11971261  0.46260093  0.76020939    -0.02300
C343        C  0.12727572  0.99665050  0.63798976    -0.08900
C344        C  0.12955878  0.02044731  0.65617816     0.07300
C345        C  0.10750161  0.04196914  0.65665492    -0.02700
C346        C  0.08355437  0.03924966  0.63928747    -0.07100
C347        C  0.08139017  0.01567686  0.62029699     0.06400
C348        C  0.10348762  0.99392071  0.62035406    -0.02200
Br349      Br  0.10451823  0.96136353  0.59321654    -0.01800
H350        H  0.14459094  0.98036618  0.63649859     0.10300
H351        H  0.06695745  0.05620747  0.63932358     0.08300
Br352      Br  0.11063311  0.57719573  0.67485766    -0.02300
C353        C  0.19709473  0.49678444  0.78724996    -0.08900
C354        C  0.20310551  0.02256326  0.74684652     0.07300
C355        C  0.22454531  0.04331833  0.74269479    -0.02700
C356        C  0.23973127  0.03790844  0.77860427    -0.07100
C357        C  0.23371332  0.01210507  0.81899578     0.06400
C358        C  0.21218778  0.49143089  0.82322680    -0.02200
Br359      Br  0.20369230  0.45483314  0.87591321    -0.01800
H360        H  0.18117717  0.48036006  0.79011645     0.10300
H361        H  0.25566312  0.05431037  0.77578196     0.08300
Br362      Br  0.23264976  0.08011552  0.69038871    -0.02300
N363        N  0.15961237  0.02272206  0.21355505    -0.03200
C364        C  0.18903024  0.52578947  0.20702827    -0.00600
C365        C  0.20493077  0.52799544  0.15848307    -0.23500
C366        C  0.18462671  0.52669853  0.13392296    -0.23700
C367        C  0.15705503  0.02380488  0.16829683    -0.00700
H368        H  0.22876976  0.52932024  0.14306775     0.13000
H369        H  0.18943352  0.52737042  0.09531014     0.13100
N370        N  0.27715089  0.51107913  0.35284103    -0.03200
C371        C  0.24768316  0.50881416  0.35894561    -0.00600
C372        C  0.23169160  0.50674318  0.40737332    -0.23500
C373        C  0.25196100  0.50730806  0.43232822    -0.23700
C374        C  0.27962426  0.51020874  0.39808171    -0.00700
H375        H  0.20783779  0.50562685  0.42261000     0.13000
H376        H  0.24704798  0.50593256  0.47124793     0.13100
N377        N  0.46753110  0.70472051  0.21656019    -0.03200
C378        C  0.46669239  0.73422170  0.21185671    -0.00600
C379        C  0.46690023  0.75030109  0.16400836    -0.23500
C380        C  0.46731751  0.72994000  0.13868006    -0.23700
C381        C  0.46766326  0.70224900  0.17185575    -0.00700
H382        H  0.46708301  0.77422389  0.14899018     0.13000
H383        H  0.46712466  0.73474860  0.10043332     0.13100
N384        N  0.47707659  0.82173667  0.34683666    -0.03200
C385        C  0.47756114  0.79196070  0.35345469    -0.00600
C386        C  0.47754139  0.77685944  0.40161113    -0.23500
C387        C  0.47720854  0.79798569  0.42536814    -0.23700
C388        C  0.47699890  0.82521935  0.39094944    -0.00700
H389        H  0.47662446  0.75304035  0.41828401     0.13000
H390        H  0.47637832  0.79394312  0.46393465     0.13100
C391        C  0.05713704  0.51586160  0.09784489     0.42700
N392        N  0.02960696  0.00264414  0.06096771     0.01600
C393        C  0.44024738  0.59247063  0.42972989    -0.06300
H394        H  0.41492198  0.58965072  0.11726319     0.07100
C395        C  0.38812086  0.98115750  0.16566965    -0.06600
Co396      Co  0.00402963  0.55489224  0.00039035     0.74200
N397        N  0.44913102  0.57186631  0.06731900    -0.25800
Co398      Co  0.42746523  0.54841953  0.03698755     0.74100
C399        C  0.37312096  0.50670707  0.18026216     0.42800
N400        N  0.45709725  0.94953092  0.11698308     0.01200
N401        N  0.40469669  0.52191711  0.10792738     0.01300
N402        N  0.49012755  0.59640721  0.40734955    -0.46700
H403        H  0.04836915  0.56537146  0.06568809     0.07100
N404        N  0.47826495  0.57443246  0.05320936     0.01600
N405        N  0.40740438  0.52362587  0.50655562     0.01300
C406        C  0.38253839  0.51022104  0.46550159     0.42900
N407        N  0.48626994  0.95210519  0.10181968    -0.25300
C408        C  0.04787470  0.54646186  0.40367132    -0.06200
N409        N  0.04719045  0.99220671  0.08963690    -0.46400
N410        N  0.39149005  0.53393500  0.47505947    -0.46600
C411        C  0.06327517  0.52144804  0.38818973     0.42700
N412        N  0.47968787  0.57719786  0.45193934     0.01600
N413        N  0.48705290  0.95481748  0.50103519    -0.25300
N414        N  0.02752032  0.53180151  0.04949639    -0.25800
N415        N  0.45792501  0.95206695  0.01608978     0.01200
H416        H  0.02087573  0.93598309  0.45204849     0.07100
H417        H  0.38954699  0.96066825  0.50135967     0.07200
N418        N  0.45055350  0.57457208  0.46600959    -0.25800
N419        N  0.40692276  0.49273729  0.12033668    -0.25400
N420        N  0.03158709  0.00510598  0.46005042     0.01600
C421        C  0.46419575  0.59967217  0.10560481     0.43000
C422        C  0.49716335  0.93399396  0.13704660    -0.06700
N423        N  0.40902369  0.49442910  0.01923461    -0.25400
H424        H  0.38489250  0.95771863  0.18506082     0.07500
N425        N  0.48811634  0.59105974  0.07476762    -0.46700
H426        H  0.02042724  0.93056398  0.13410511     0.07100
C427        C  0.47144991  0.92608869  0.46486838     0.42800
C428        C  0.04409483  0.54217966  0.07125472    -0.06200
Co429      Co  0.00905591  0.97822927  0.03085133     0.73800
N430        N  0.44720783  0.92996186  0.16144234    -0.46400
C431        C  0.46658322  0.60687431  0.39045682     0.43100
N432        N  0.05172470  0.99651329  0.42489458    -0.46400
Co433      Co  0.43230605  0.97167978  0.06887662     0.73900
C434        C  0.39375501  0.98391125  0.49558632    -0.06700
C435        C  0.43819623  0.58708373  0.10032063    -0.06300
N436        N  0.02919059  0.53424606  0.44866467    -0.25800
N437        N  0.38487304  0.53114357  0.14265260    -0.46600
H438        H  0.41710852  0.59571943  0.43152992     0.07100
C439        C  0.49767530  0.93922553  0.46847383    -0.06700
Cl440      Cl  0.46821317  0.51330164  0.03434111    -0.49700
C441        C  0.47126290  0.91939709  0.17684365     0.42900
H442        H  0.05081201  0.57001547  0.38523304     0.07100
N443        N  0.44777675  0.93512721  0.49542843    -0.46400
C444        C  0.44869940  0.85785406  0.43887527    -0.08900
C445        C  0.47434454  0.85349709  0.40337369     0.07300
C446        C  0.49798457  0.87421261  0.38548979    -0.02700
C447        C  0.49606759  0.89827836  0.40474542    -0.07100
C448        C  0.47087251  0.90208521  0.44205844     0.06400
C449        C  0.44657892  0.88187592  0.45816365    -0.02200
Br450      Br  0.41050233  0.88375081  0.50862552    -0.01800
H451        H  0.43049577  0.84182374  0.45288706     0.10300
H452        H  0.51476962  0.91364111  0.39126486     0.08300
Br453      Br  0.53430668  0.86935819  0.33827338    -0.02300
C454        C  0.45010197  0.86328982  0.30606751    -0.08900
C455        C  0.47494500  0.84509755  0.30331202     0.07300
C456        C  0.49790350  0.85088253  0.25847885    -0.02700
C457        C  0.49606692  0.87489565  0.21787796    -0.07100
C458        C  0.47138498  0.89344923  0.22053747     0.06400
C459        C  0.44803096  0.88716484  0.26524461    -0.02200
Br460      Br  0.41362051  0.91127937  0.27417440    -0.01800
H461        H  0.43234208  0.85897221  0.34045636     0.10300
H462        H  0.51420090  0.87903273  0.18402461     0.08300
Br463      Br  0.53308058  0.82781713  0.25172812    -0.02300
C464        C  0.99296435  0.66419168  0.26271279    -0.08900
C465        C  0.46732254  0.68060160  0.26042103     0.07300
C466        C  0.44164797  0.67279008  0.30074129    -0.02700
C467        C  0.44189305  0.64887815  0.34250652    -0.07100
C468        C  0.46753331  0.63213251  0.34508027     0.06400
C469        C  0.99329284  0.64003686  0.30412520    -0.02200
Br470      Br  0.02923729  0.61812358  0.30042960    -0.01800
H471        H  0.01289055  0.67028225  0.23195768     0.10300
H472        H  0.42183013  0.64353163  0.37311351     0.08300
Br473      Br  0.40553924  0.69365318  0.29952982    -0.02300
C474        C  0.99103398  0.65706339  0.15212480    -0.08900
C475        C  0.46581288  0.67424765  0.16047223     0.07300
C476        C  0.43963363  0.66580781  0.15402436    -0.02700
C477        C  0.43922476  0.64091783  0.13775104    -0.07100
C478        C  0.46474996  0.62403635  0.12763811     0.06400
C479        C  0.99063373  0.63186464  0.13655064    -0.02200
Br480      Br  0.02601198  0.60905197  0.12958169    -0.01800
H481        H  0.01136092  0.66363738  0.15655446     0.10300
H482        H  0.41901856  0.63542924  0.13167153     0.08300
Br483      Br  0.40405696  0.68801374  0.16622991    -0.02300
C484        C  0.49068415  0.73997053  0.27308287    -0.08900
C485        C  0.46793816  0.74785487  0.25033132     0.07300
C486        C  0.44815083  0.77011850  0.26202465    -0.02700
C487        C  0.45190373  0.78458471  0.29506096    -0.07100
C488        C  0.47499032  0.77704109  0.31719261     0.06400
C489        C  0.49421251  0.75412738  0.30659062    -0.02200
Br490      Br  0.02670641  0.74219609  0.33441939    -0.01800
H491        H  0.00634283  0.72330902  0.26370404     0.10300
H492        H  0.43630156  0.80131663  0.30435727     0.08300
Br493      Br  0.41466283  0.78047067  0.23632204    -0.02300
C494        C  0.32963265  0.49124613  0.40237369    -0.08900
C495        C  0.30738435  0.51188286  0.41072748     0.07300
C496        C  0.31099255  0.53288593  0.43424373    -0.02700
C497        C  0.33605259  0.53238576  0.45031026    -0.07100
C498        C  0.35775064  0.51096683  0.44408924     0.06400
C499        C  0.35475754  0.49062776  0.41879982    -0.02200
Br500      Br  0.38455012  0.46237330  0.40381117    -0.01800
H501        H  0.32714394  0.47511503  0.38409467     0.10300
H502        H  0.33814964  0.54845133  0.46896630     0.08300
Br503      Br  0.28281125  0.56337783  0.44436037    -0.02300
C504        C  0.34564318  0.53172846  0.24346009    -0.08900
C505        C  0.34784147  0.50730680  0.22447652     0.07300
C506        C  0.32524732  0.48501633  0.24710411    -0.02700
C507        C  0.30236262  0.48672130  0.28909874    -0.07100
C508        C  0.30083031  0.51060670  0.30887045     0.06400
C509        C  0.32235263  0.53363204  0.28487422    -0.02200
Br510      Br  0.31965400  0.56907716  0.30487059    -0.01800
H511        H  0.36209465  0.54958197  0.22581743     0.10300
H512        H  0.28538725  0.46936512  0.30638697     0.08300
Br513      Br  0.32219334  0.45324707  0.22035022    -0.02300
C514        C  0.13375089  0.54471643  0.28003022    -0.08900
C515        C  0.13602346  0.52157561  0.25838647     0.07300
C516        C  0.11545573  0.99763827  0.28158941    -0.02700
C517        C  0.09207963  0.99815434  0.32365278    -0.07100
C518        C  0.08892163  0.52200438  0.34409799     0.06400
C519        C  0.11074837  0.54508568  0.32257262    -0.02200
Br520      Br  0.11259477  0.57638232  0.35109160    -0.01800
H521        H  0.15009187  0.56268613  0.26347235     0.10300
H522        H  0.07628729  0.97969591  0.34058090     0.08300
Br523      Br  0.11971262  0.96260086  0.26020944    -0.02300
C524        C  0.12727572  0.49665051  0.13798971    -0.08900
C525        C  0.12955876  0.52044733  0.15617811     0.07300
C526        C  0.10750159  0.54196914  0.15665485    -0.02700
C527        C  0.08355436  0.53924966  0.13928738    -0.07100
C528        C  0.08139018  0.51567686  0.12029690     0.06400
C529        C  0.10348764  0.49392071  0.12035397    -0.02200
Br530      Br  0.10451827  0.46136355  0.09321642    -0.01800
H531        H  0.14459095  0.48036619  0.13649855     0.10300
H532        H  0.06695743  0.55620746  0.13932348     0.08300
Br533      Br  0.11063318  0.07719569  0.17485754    -0.02300
C534        C  0.19709472  0.99678439  0.28725005    -0.08900
C535        C  0.20310552  0.52256327  0.24684642     0.07300
C536        C  0.22454531  0.54331833  0.24269478    -0.02700
C537        C  0.23973125  0.53790839  0.27860429    -0.07100
C538        C  0.23371331  0.51210500  0.31899574     0.06400
C539        C  0.21218779  0.99143083  0.32322684    -0.02200
Br540      Br  0.20369234  0.95483306  0.37591325    -0.01800
H541        H  0.18117715  0.98035999  0.29011655     0.10300
H542        H  0.25566310  0.55431032  0.27578205     0.08300
Br543      Br  0.23264976  0.58011557  0.19038882    -0.02300
N544        N  0.15961240  0.02272204  0.71355507    -0.03200
C545        C  0.18903024  0.52578958  0.70702818    -0.00600
C546        C  0.20493073  0.52799557  0.65848296    -0.23500
C547        C  0.18462665  0.52669865  0.63392291    -0.23700
C548        C  0.15705509  0.02380488  0.66829682    -0.00700
H549        H  0.22876972  0.52932039  0.64306760     0.13000
H550        H  0.18943345  0.52737054  0.59531006     0.13100
N551        N  0.27715088  0.51107919  0.85284108    -0.03200
C552        C  0.24768314  0.50881430  0.85894557    -0.00600
C553        C  0.23169156  0.50674334  0.90737327    -0.23500
C554        C  0.25196094  0.50730817  0.93232822    -0.23700
C555        C  0.27962422  0.51020878  0.89808178    -0.00700
H556        H  0.20783775  0.50562706  0.92260988     0.13000
H557        H  0.24704790  0.50593268  0.97124794     0.13100
N558        N  0.46753109  0.70472057  0.71656011    -0.03200
C559        C  0.46669242  0.73422177  0.71185661    -0.00600
C560        C  0.46690032  0.75030115  0.66400823    -0.23500
C561        C  0.46731759  0.72994007  0.63867994    -0.23700
C562        C  0.46766328  0.70224907  0.67185565    -0.00700
H563        H  0.46708315  0.77422397  0.64899002     0.13000
H564        H  0.46712479  0.73474868  0.60043316     0.13100
N565        N  0.47707653  0.82173665  0.84683671    -0.03200
C566        C  0.47756107  0.79196067  0.85345475    -0.00600
C567        C  0.47754126  0.77685941  0.90161122    -0.23500
C568        C  0.47720839  0.79798566  0.92536825    -0.23700
C569        C  0.47699880  0.82521932  0.89094952    -0.00700
H570        H  0.47662429  0.75304032  0.91828412     0.13000
H571        H  0.47637812  0.79394310  0.96393477     0.13100
C572        C  0.05713703  0.51586157  0.59784494     0.42700
N573        N  0.02960698  0.00264420  0.56096771     0.01600
C574        C  0.44024740  0.59247069  0.92972986    -0.06300
H575        H  0.41492197  0.58965072  0.61726325     0.07100
C576        C  0.38812083  0.98115749  0.66566973    -0.06600
Co577      Co  0.00402964  0.55489223  0.50039035     0.74200
N578        N  0.44913100  0.57186630  0.56731905    -0.25800
Co579      Co  0.42746520  0.54841952  0.53698760     0.74100
C580        C  0.37312094  0.50670708  0.68026223     0.42800
N581        N  0.45709723  0.94953092  0.61698316     0.01200
N582        N  0.40469666  0.52191711  0.60792743     0.01300
N583        N  0.49012755  0.59640728  0.90734951    -0.46700
H584        H  0.04836913  0.56537143  0.56568814     0.07100
N585        N  0.47826493  0.57443247  0.55320940     0.01600
N586        N  0.40740441  0.52362587  0.00655557     0.01300
C587        C  0.38253839  0.51022103  0.96550161     0.42900
N588        N  0.48626992  0.95210520  0.60181977    -0.25300
C589        C  0.04787470  0.54646190  0.90367133    -0.06200
N590        N  0.04719051  0.99220680  0.58963684    -0.46400
N591        N  0.39149005  0.53393499  0.97505946    -0.46600
C592        C  0.06327516  0.52144808  0.88818971     0.42700
N593        N  0.47968788  0.57719790  0.95193928     0.01600
N594        N  0.48705290  0.95481749  0.00103510    -0.25300
N595        N  0.02752031  0.53180149  0.54949641    -0.25800
N596        N  0.45792501  0.95206694  0.51608985     0.01200
H597        H  0.02087576  0.93598308  0.95204848     0.07100
H598        H  0.38954700  0.96066834  0.00135953     0.07200
N599        N  0.45055351  0.57457211  0.96600954    -0.25800
N600        N  0.40692272  0.49273729  0.62033675    -0.25400
N601        N  0.03158709  0.00510595  0.96005039     0.01600
C602        C  0.46419574  0.59967218  0.60560484     0.43000
C603        C  0.49716335  0.93399399  0.63704672    -0.06700
N604        N  0.40902365  0.49442910  0.51923466    -0.25400
H605        H  0.38489248  0.95771862  0.68506092     0.07500
N606        N  0.48811633  0.59105976  0.57476764    -0.46700
H607        H  0.02042723  0.93056404  0.63410524     0.07100
C608        C  0.47144992  0.92608868  0.96486832     0.42800
C609        C  0.04409482  0.54217964  0.57125475    -0.06200
Co610      Co  0.00905592  0.97822930  0.53085137     0.73800
N611        N  0.44720781  0.92996189  0.66144244    -0.46400
C612        C  0.46658322  0.60687440  0.89045681     0.43100
N613        N  0.05172469  0.99651325  0.92489455    -0.46400
Co614      Co  0.43230603  0.97167977  0.56887669     0.73900
C615        C  0.39375502  0.98391131  0.99558622    -0.06700
C616        C  0.43819621  0.58708374  0.60032068    -0.06300
N617        N  0.02919059  0.53424608  0.94866467    -0.25800
N618        N  0.38487300  0.53114358  0.64265264    -0.46600
H619        H  0.41710851  0.59571950  0.93152992     0.07100
C620        C  0.49767530  0.93922554  0.96847374    -0.06700
Cl621      Cl  0.46821313  0.51330163  0.53434117    -0.49700
C622        C  0.47126288  0.91939714  0.67684378     0.42900
H623        H  0.05081202  0.57001551  0.88523307     0.07100
N624        N  0.44777675  0.93512720  0.99542838    -0.46400
C625        C  0.44869933  0.85785412  0.93887516    -0.08900
C626        C  0.47434449  0.85349707  0.90337372     0.07300
C627        C  0.49798459  0.87421250  0.88548993    -0.02700
C628        C  0.49606761  0.89827826  0.90474551    -0.07100
C629        C  0.47087252  0.90208520  0.94205839     0.06400
C630        C  0.44657888  0.88187597  0.95816353    -0.02200
Br631      Br  0.41050225  0.88375094  0.00862527    -0.01800
H632        H  0.43049565  0.84182383  0.95288690     0.10300
H633        H  0.51476971  0.91364097  0.89126500     0.08300
Br634      Br  0.53430679  0.86935785  0.83827390    -0.02300
C635        C  0.45010191  0.86328979  0.80606756    -0.08900
C636        C  0.47494494  0.84509754  0.80331209     0.07300
C637        C  0.49790346  0.85088256  0.75847895    -0.02700
C638        C  0.49606689  0.87489570  0.71787809    -0.07100
C639        C  0.47138495  0.89344926  0.72053759     0.06400
C640        C  0.44803091  0.88716485  0.76524471    -0.02200
Br641      Br  0.41362048  0.91127941  0.77417454    -0.01800
H642        H  0.43234198  0.85897216  0.84045641     0.10300
H643        H  0.51420090  0.87903280  0.68402475     0.08300
Br644      Br  0.53308057  0.82781719  0.75172825    -0.02300
C645        C  0.99296433  0.66419165  0.76271268    -0.08900
C646        C  0.46732253  0.68060167  0.76042096     0.07300
C647        C  0.44164796  0.67279016  0.80074122    -0.02700
C648        C  0.44189304  0.64887823  0.84250649    -0.07100
C649        C  0.46753331  0.63213260  0.84508025     0.06400
C650        C  0.99329282  0.64003684  0.80412511    -0.02200
Br651      Br  0.02923724  0.61812351  0.80042950    -0.01800
H652        H  0.01289053  0.67028217  0.73195751     0.10300
H653        H  0.42183012  0.64353172  0.87311346     0.08300
Br654      Br  0.40553924  0.69365328  0.79952971    -0.02300
C655        C  0.99103409  0.65706359  0.65212441    -0.08900
C656        C  0.46581289  0.67424772  0.66047213     0.07300
C657        C  0.43963364  0.66580789  0.65402425    -0.02700
C658        C  0.43922476  0.64091789  0.63775098    -0.07100
C659        C  0.46474995  0.62403638  0.62763811     0.06400
C660        C  0.99063387  0.63186482  0.63655028    -0.02200
Br661      Br  0.02601223  0.60905233  0.62958103    -0.01800
H662        H  0.01136105  0.66363767  0.65655388     0.10300
H663        H  0.41901856  0.63542929  0.63167147     0.08300
Br664      Br  0.40405700  0.68801387  0.66622969    -0.02300
C665        C  0.49068412  0.73997053  0.77308288    -0.08900
C666        C  0.46793817  0.74785492  0.75033124     0.07300
C667        C  0.44815086  0.77011858  0.76202453    -0.02700
C668        C  0.45190371  0.78458472  0.79506094    -0.07100
C669        C  0.47499026  0.77704107  0.81719267     0.06400
C670        C  0.49421244  0.75412735  0.80659069    -0.02200
Br671      Br  0.02670634  0.74219600  0.83441956    -0.01800
H672        H  0.00634277  0.72330896  0.76370418     0.10300
H673        H  0.43630155  0.80131666  0.80435723     0.08300
Br674      Br  0.41466301  0.78047092  0.73632156    -0.02300
C675        C  0.32963256  0.49124606  0.90237390    -0.08900
C676        C  0.30738431  0.51188285  0.91072761     0.07300
C677        C  0.31099256  0.53288597  0.93424373    -0.02700
C678        C  0.33605262  0.53238579  0.95031022    -0.07100
C679        C  0.35775062  0.51096682  0.94408929     0.06400
C680        C  0.35475747  0.49062770  0.91879999    -0.02200
Br681      Br  0.38455003  0.46237321  0.90381137    -0.01800
H682        H  0.32714381  0.47511494  0.88409497     0.10300
H683        H  0.33814971  0.54845141  0.96896616     0.08300
Br684      Br  0.28281137  0.56337797  0.94436019    -0.02300
C685        C  0.34564318  0.53172847  0.74346020    -0.08900
C686        C  0.34784145  0.50730682  0.72447661     0.07300
C687        C  0.32524729  0.48501636  0.74710418    -0.02700
C688        C  0.30236258  0.48672133  0.78909881    -0.07100
C689        C  0.30083031  0.51060673  0.80887053     0.06400
C690        C  0.32235263  0.53363205  0.78487432    -0.02200
Br691      Br  0.31965398  0.56907718  0.80487069    -0.01800
H692        H  0.36209466  0.54958196  0.72581755     0.10300
H693        H  0.28538720  0.46936518  0.80638701     0.08300
Br694      Br  0.32219330  0.45324713  0.72035023    -0.02300
C695        C  0.13375085  0.54471654  0.78003014    -0.08900
C696        C  0.13602346  0.52157569  0.75838644     0.07300
C697        C  0.11545571  0.99763824  0.78158932    -0.02700
C698        C  0.09207960  0.99815430  0.82365269    -0.07100
C699        C  0.08892164  0.52200444  0.84409797     0.06400
C700        C  0.11074834  0.54508578  0.82257254    -0.02200
Br701      Br  0.11259472  0.57638245  0.85109147    -0.01800
H702        H  0.15009180  0.56268629  0.76347221     0.10300
H703        H  0.07628724  0.97969589  0.84058075     0.08300
Br704      Br  0.11971261  0.96260087  0.76020927    -0.02300
C705        C  0.12727567  0.49665052  0.63798983    -0.08900
C706        C  0.12955872  0.52044736  0.65617817     0.07300
C707        C  0.10750152  0.54196915  0.65665493    -0.02700
C708        C  0.08355430  0.53924964  0.63928748    -0.07100
C709        C  0.08139013  0.51567683  0.62029701     0.06400
C710        C  0.10348758  0.49392067  0.62035416    -0.02200
Br711      Br  0.10451815  0.46136338  0.59321691    -0.01800
H712        H  0.14459092  0.48036619  0.63649869     0.10300
H713        H  0.06695735  0.55620743  0.63932357     0.08300
Br714      Br  0.11063329  0.07719571  0.67485763    -0.02300
C715        C  0.19709468  0.99678437  0.78725023    -0.08900
C716        C  0.20310554  0.52256337  0.74684632     0.07300
C717        C  0.22454533  0.54331844  0.74269466    -0.02700
C718        C  0.23973128  0.53790852  0.77860418    -0.07100
C719        C  0.23371333  0.51210512  0.81899565     0.06400
C720        C  0.21218774  0.99143084  0.82322703    -0.02200
Br721      Br  0.20369227  0.95483311  0.87591351    -0.01800
H722        H  0.18117709  0.98035998  0.79011678     0.10300
H723        H  0.25566310  0.55431043  0.77578194     0.08300
Br724      Br  0.23264975  0.58011568  0.69038870    -0.02300
N725        N  0.65961237  0.52272214  0.21355503    -0.03200
C726        C  0.68903020  0.02578953  0.20702830    -0.00600
C727        C  0.70493071  0.02799550  0.15848310    -0.23500
C728        C  0.68462666  0.02669854  0.13392302    -0.23700
C729        C  0.65705505  0.52380499  0.16829678    -0.00700
H730        H  0.72876971  0.02932033  0.14306776     0.13000
H731        H  0.68943347  0.02737042  0.09531020     0.13100
N732        N  0.77715093  0.01107922  0.35284097    -0.03200
C733        C  0.74768319  0.00881427  0.35894551    -0.00600
C734        C  0.73169162  0.00674334  0.40737319    -0.23500
C735        C  0.75196100  0.00730826  0.43232809    -0.23700
C736        C  0.77962427  0.01020888  0.39808164    -0.00700
H737        H  0.70783781  0.00562703  0.42260982     0.13000
H738        H  0.74704796  0.00593280  0.47124780     0.13100
N739        N  0.96753122  0.20472056  0.21656012    -0.03200
C740        C  0.96669254  0.23422176  0.21185661    -0.00600
C741        C  0.96690047  0.25030114  0.16400822    -0.23500
C742        C  0.96731777  0.22994005  0.13867993    -0.23700
C743        C  0.96766343  0.20224906  0.17185564    -0.00700
H744        H  0.96708330  0.27422395  0.14899002     0.13000
H745        H  0.96712498  0.23474867  0.10043312     0.13100
N746        N  0.97707666  0.32173671  0.34683664    -0.03200
C747        C  0.97756120  0.29196073  0.35345468    -0.00600
C748        C  0.97754139  0.27685947  0.40161114    -0.23500
C749        C  0.97720853  0.29798571  0.42536816    -0.23700
C750        C  0.97699893  0.32521937  0.39094945    -0.00700
H751        H  0.97662443  0.25304038  0.41828403     0.13000
H752        H  0.97637828  0.29394314  0.46393469     0.13100
C753        C  0.55713703  0.01586150  0.09784497     0.42700
N754        N  0.52960700  0.50264424  0.06096762     0.01600
C755        C  0.94024740  0.09247067  0.42972987    -0.06300
H756        H  0.91492203  0.08965076  0.11726320     0.07100
C757        C  0.88812087  0.48115746  0.16566961    -0.06600
Co758      Co  0.50402966  0.05489219  0.00039037     0.74200
N759        N  0.94913106  0.07186628  0.06731908    -0.25800
Co760      Co  0.92746525  0.04841953  0.03698759     0.74100
C761        C  0.87312099  0.00670710  0.18026217     0.42800
N762        N  0.95709729  0.44953094  0.11698304     0.01200
N763        N  0.90469670  0.02191712  0.10792738     0.01300
N764        N  0.99012757  0.09640722  0.40734954    -0.46700
H765        H  0.54836920  0.06537137  0.06568809     0.07100
N766        N  0.97826498  0.07443242  0.05320943     0.01600
N767        N  0.90740440  0.02362587  0.50655560     0.01300
C768        C  0.88253839  0.01022103  0.46550163     0.42900
N769        N  0.98626999  0.45210523  0.10181964    -0.25300
C770        C  0.54787469  0.04646185  0.40367144    -0.06200
N771        N  0.54719052  0.49220684  0.08963678    -0.46400
N772        N  0.89149006  0.03393499  0.47505948    -0.46600
C773        C  0.56327513  0.02144803  0.38818980     0.42700
N774        N  0.97968789  0.07719787  0.45193933     0.01600
N775        N  0.98705291  0.45481751  0.50103511    -0.25300
N776        N  0.52752033  0.03180143  0.04949643    -0.25800
N777        N  0.95792505  0.45206697  0.01608974     0.01200
H778        H  0.52087573  0.43598311  0.45204850     0.07100
H779        H  0.88954708  0.46066829  0.50135949     0.07200
N780        N  0.95055352  0.07457210  0.46600958    -0.25800
N781        N  0.90692273  0.99273730  0.12033666    -0.25400
N782        N  0.53158707  0.50510600  0.46005039     0.01600
C783        C  0.96419580  0.09967218  0.10560482     0.43000
C784        C  0.99716341  0.43399400  0.13704657    -0.06700
N785        N  0.90902370  0.99442914  0.01923457    -0.25400
H786        H  0.88489252  0.45771857  0.18506077     0.07500
N787        N  0.98811639  0.09105973  0.07476765    -0.46700
H788        H  0.52042731  0.43056404  0.13410507     0.07100
C789        C  0.97144994  0.42608871  0.46486830     0.42800
C790        C  0.54409485  0.04217958  0.07125475    -0.06200
Co791      Co  0.50905595  0.47822932  0.03085129     0.73800
N792        N  0.94720788  0.42996189  0.16144232    -0.46400
C793        C  0.96658325  0.10687434  0.39045681     0.43100
N794        N  0.55172468  0.49651331  0.42489455    -0.46400
Co795      Co  0.93230608  0.47167978  0.06887659     0.73900
C796        C  0.89375506  0.48391126  0.49558620    -0.06700
C797        C  0.93819627  0.08708373  0.10032068    -0.06300
N798        N  0.52919058  0.03424604  0.44866479    -0.25800
N799        N  0.88487307  0.03114360  0.14265261    -0.46600
H800        H  0.91710855  0.09571948  0.43152991     0.07100
C801        C  0.99767532  0.43922557  0.46847374    -0.06700
Cl802      Cl  0.96821316  0.01330161  0.03434115    -0.49700
C803        C  0.97126296  0.41939714  0.17684364     0.42900
H804        H  0.55081200  0.07001546  0.38523318     0.07100
N805        N  0.94777677  0.43512721  0.49542837    -0.46400
C806        C  0.94869941  0.35785411  0.43887516    -0.08900
C807        C  0.97434458  0.35349710  0.40337369     0.07300
C808        C  0.99798465  0.37421257  0.38548987    -0.02700
C809        C  0.99606765  0.39827833  0.40474546    -0.07100
C810        C  0.97087255  0.40208524  0.44205836     0.06400
C811        C  0.94657893  0.38187598  0.45816350    -0.02200
Br812      Br  0.91050226  0.38375097  0.50862515    -0.01800
H813        H  0.93049576  0.34182382  0.45288689     0.10300
H814        H  0.01476972  0.41364105  0.39126496     0.08300
Br815      Br  0.03430682  0.36935800  0.33827373    -0.02300
C816        C  0.95010205  0.36328986  0.30606748    -0.08900
C817        C  0.97494507  0.34509760  0.30331201     0.07300
C818        C  0.99790357  0.35088259  0.25847884    -0.02700
C819        C  0.99606697  0.37489570  0.21787794    -0.07100
C820        C  0.97138504  0.39344927  0.22053745     0.06400
C821        C  0.94803102  0.38716488  0.26524460    -0.02200
Br822      Br  0.91362055  0.41127939  0.27417439    -0.01800
H823        H  0.93234214  0.35897225  0.34045636     0.10300
H824        H  0.01420096  0.37903278  0.18402457     0.08300
Br825      Br  0.03308072  0.32781729  0.25172815    -0.02300
C826        C  0.49296441  0.16419157  0.26271273    -0.08900
C827        C  0.96732263  0.18060164  0.26042097     0.07300
C828        C  0.94164806  0.17279016  0.30074125    -0.02700
C829        C  0.94189312  0.14887822  0.34250648    -0.07100
C830        C  0.96753335  0.13213253  0.34508025     0.06400
C831        C  0.49329288  0.14003676  0.30412518    -0.02200
Br832      Br  0.52923728  0.11812339  0.30042962    -0.01800
H833        H  0.51289060  0.17028205  0.23195755     0.10300
H834        H  0.92183019  0.14353172  0.37311349     0.08300
Br835      Br  0.90553937  0.19365335  0.29952980    -0.02300
C836        C  0.49103422  0.15706352  0.15212442    -0.08900
C837        C  0.96581302  0.17424771  0.16047211     0.07300
C838        C  0.93963376  0.16580789  0.15402424    -0.02700
C839        C  0.93922486  0.14091789  0.13775101    -0.07100
C840        C  0.96475004  0.12403638  0.12763809     0.06400
C841        C  0.49063396  0.13186478  0.13655020    -0.02200
Br842      Br  0.52601237  0.10905237  0.12958057    -0.01800
H843        H  0.51136120  0.16363759  0.15655380     0.10300
H844        H  0.91901863  0.13542930  0.13167151     0.08300
Br845      Br  0.90405715  0.18801395  0.16622954    -0.02300
C846        C  0.99068423  0.23997053  0.27308291    -0.08900
C847        C  0.96793828  0.24785492  0.25033125     0.07300
C848        C  0.94815099  0.27011861  0.26202448    -0.02700
C849        C  0.95190385  0.28458481  0.29506083    -0.07100
C850        C  0.97499040  0.27704114  0.31719259     0.06400
C851        C  0.99421255  0.25412739  0.30659069    -0.02200
Br852      Br  0.52670638  0.24219602  0.33441967    -0.01800
H853        H  0.50634280  0.22330893  0.26370434     0.10300
H854        H  0.93630172  0.30131674  0.30435706     0.08300
Br855      Br  0.91466310  0.28047093  0.23632163    -0.02300
C856        C  0.82963259  0.99124612  0.40237384    -0.08900
C857        C  0.80738436  0.01188294  0.41072748     0.07300
C858        C  0.81099261  0.03288603  0.43424365    -0.02700
C859        C  0.83605263  0.03238581  0.45031024    -0.07100
C860        C  0.85775063  0.01096682  0.44408932     0.06400
C861        C  0.85475748  0.99062772  0.41880000    -0.02200
Br862      Br  0.88455002  0.96237320  0.40381147    -0.01800
H863        H  0.82714384  0.97511499  0.38409488     0.10300
H864        H  0.83814972  0.04845141  0.46896621     0.08300
Br865      Br  0.78281146  0.06337808  0.44436001    -0.02300
C866        C  0.84564320  0.03172851  0.24346006    -0.08900
C867        C  0.84784149  0.00730685  0.22447651     0.07300
C868        C  0.82524734  0.98501638  0.24710412    -0.02700
C869        C  0.80236265  0.98672136  0.28909873    -0.07100
C870        C  0.80083035  0.01060677  0.30887042     0.06400
C871        C  0.82235266  0.03363210  0.28487417    -0.02200
Br872      Br  0.81965403  0.06907723  0.30487056    -0.01800
H873        H  0.86209468  0.04958203  0.22581737     0.10300
H874        H  0.78538727  0.96936518  0.30638697     0.08300
Br875      Br  0.82219336  0.95324710  0.22035027    -0.02300
C876        C  0.63375084  0.04471645  0.28003026    -0.08900
C877        C  0.63602343  0.02157562  0.25838653     0.07300
C878        C  0.61545567  0.49763834  0.28158931    -0.02700
C879        C  0.59207958  0.49815443  0.32365265    -0.07100
C880        C  0.58892160  0.02200438  0.34409805     0.06400
C881        C  0.61074833  0.04508570  0.32257265    -0.02200
Br882      Br  0.61259475  0.07638233  0.35109163    -0.01800
H883        H  0.65009180  0.06268618  0.26347235     0.10300
H884        H  0.57628719  0.47969598  0.34058075     0.08300
Br885      Br  0.61971249  0.46260095  0.26020930    -0.02300
C886        C  0.62727571  0.99665046  0.13798978    -0.08900
C887        C  0.62955872  0.02044726  0.15617823     0.07300
C888        C  0.60750152  0.04196905  0.15665503    -0.02700
C889        C  0.58355429  0.03924955  0.13928756    -0.07100
C890        C  0.58139015  0.01567677  0.12029702     0.06400
C891        C  0.60348764  0.99392065  0.12035404    -0.02200
Br892      Br  0.60451832  0.96136351  0.09321640    -0.01800
H893        H  0.64459097  0.98036616  0.13649858     0.10300
H894        H  0.56695733  0.05620733  0.13932372     0.08300
Br895      Br  0.61063320  0.57719583  0.17485751    -0.02300
C896        C  0.69709468  0.49678443  0.28725007    -0.08900
C897        C  0.70310548  0.02256335  0.24684644     0.07300
C898        C  0.72454524  0.04331844  0.24269478    -0.02700
C899        C  0.73973124  0.03790851  0.27860421    -0.07100
C900        C  0.73371336  0.01210508  0.31899562     0.06400
C901        C  0.71218774  0.49143084  0.32322689    -0.02200
Br902      Br  0.70369219  0.45483309  0.37591330    -0.01800
H903        H  0.68117709  0.48036006  0.29011656     0.10300
H904        H  0.75566305  0.05431044  0.27578197     0.08300
Br905      Br  0.73264955  0.08011573  0.19038892    -0.02300
N906        N  0.65961239  0.52272214  0.71355492    -0.03200
C907        C  0.68903025  0.02578943  0.70702834    -0.00600
C908        C  0.70493078  0.02799539  0.65848315    -0.23500
C909        C  0.68462673  0.02669846  0.63392303    -0.23700
C910        C  0.65705505  0.52380497  0.66829669    -0.00700
H911        H  0.72876977  0.02932020  0.64306784     0.13000
H912        H  0.68943355  0.02737035  0.59531022     0.13100
N913        N  0.77715092  0.01107917  0.85284108    -0.03200
C914        C  0.74768318  0.00881421  0.85894563    -0.00600
C915        C  0.73169162  0.00674324  0.90737333    -0.23500
C916        C  0.75196101  0.00730815  0.93232823    -0.23700
C917        C  0.77962427  0.01020882  0.89808175    -0.00700
H918        H  0.70783781  0.00562691  0.92260999     0.13000
H919        H  0.74704797  0.00593267  0.97124794     0.13100
N920        N  0.96753116  0.20472052  0.71656016    -0.03200
C921        C  0.96669254  0.23422172  0.71185663    -0.00600
C922        C  0.96690045  0.25030111  0.66400824    -0.23500
C923        C  0.96731768  0.22994001  0.63867998    -0.23700
C924        C  0.96766333  0.20224901  0.67185572    -0.00700
H925        H  0.96708331  0.27422391  0.64899003     0.13000
H926        H  0.96712487  0.23474862  0.60043320     0.13100
N927        N  0.97707671  0.32173670  0.84683653    -0.03200
C928        C  0.97756133  0.29196072  0.85345457    -0.00600
C929        C  0.97754158  0.27685948  0.90161102    -0.23500
C930        C  0.97720866  0.29798574  0.92536804    -0.23700
C931        C  0.97699898  0.32521939  0.89094933    -0.00700
H932        H  0.97662467  0.25304039  0.91828391     0.13000
H933        H  0.97637842  0.29394319  0.96393454     0.13100
C934        C  0.55713699  0.01586153  0.59784509     0.42700
N935        N  0.52960695  0.50264421  0.56096769     0.01600
C936        C  0.94024744  0.09247069  0.92972994    -0.06300
H937        H  0.91492195  0.08965073  0.61726320     0.07100
C938        C  0.88812085  0.48115746  0.66566968    -0.06600
Co939      Co  0.50402962  0.05489220  0.50039047     0.74200
N940        N  0.94913100  0.07186631  0.56731903    -0.25800
Co941      Co  0.92746522  0.04841953  0.53698758     0.74100
C942        C  0.87312095  0.00670710  0.68026220     0.42800
N943        N  0.95709727  0.44953093  0.61698305     0.01200
N944        N  0.90469668  0.02191713  0.60792741     0.01300
N945        N  0.99012758  0.09640724  0.90734958    -0.46700
H946        H  0.54836910  0.06537139  0.56568829     0.07100
N947        N  0.97826493  0.07443246  0.55320943     0.01600
N948        N  0.90740442  0.02362591  0.00655557     0.01300
C949        C  0.88253841  0.01022111  0.96550157     0.42900
N950        N  0.98626996  0.45210523  0.60181965    -0.25300
C951        C  0.54787471  0.04646180  0.90367133    -0.06200
N952        N  0.54719046  0.49220680  0.58963686    -0.46400
N953        N  0.89149007  0.03393506  0.97505947    -0.46600
C954        C  0.56327516  0.02144797  0.88818976     0.42700
N955        N  0.97968791  0.07719788  0.95193936     0.01600
N956        N  0.98705294  0.45481751  0.00103507    -0.25300
N957        N  0.52752028  0.03180145  0.54949656    -0.25800
N958        N  0.95792502  0.45206696  0.51608978     0.01200
H959        H  0.52087577  0.43598310  0.95204846     0.07100
H960        H  0.88954702  0.46066826  0.00135960     0.07200
N961        N  0.95055354  0.07457211  0.96600962    -0.25800
N962        N  0.90692274  0.99273731  0.62033672    -0.25400
N963        N  0.53158710  0.50510601  0.96005032     0.01600
C964        C  0.96419570  0.09967216  0.60560489     0.43000
C965        C  0.99716340  0.43399398  0.63704655    -0.06700
N966        N  0.90902368  0.99442911  0.51923465    -0.25400
H967        H  0.88489249  0.45771863  0.68506082     0.07500
N968        N  0.98811631  0.09105973  0.57476772    -0.46700
H969        H  0.52042725  0.43056400  0.63410509     0.07100
C970        C  0.97144995  0.42608871  0.96486827     0.42800
C971        C  0.54409478  0.04217959  0.57125491    -0.06200
Co972      Co  0.50905590  0.47822931  0.53085134     0.73800
N973        N  0.94720786  0.42996185  0.66144228    -0.46400
C974        C  0.96658326  0.10687436  0.89045687     0.43100
N975        N  0.55172472  0.49651332  0.92489448    -0.46400
Co976      Co  0.93230606  0.47167978  0.56887663     0.73900
C977        C  0.89375504  0.48391128  0.99558624    -0.06700
C978        C  0.93819619  0.08708373  0.60032067    -0.06300
N979        N  0.52919060  0.03424601  0.94866469    -0.25800
N980        N  0.88487302  0.03114360  0.64265262    -0.46600
H981        H  0.91710853  0.09571950  0.93153000     0.07100
C982        C  0.99767533  0.43922556  0.96847372    -0.06700
Cl983      Cl  0.96821315  0.01330163  0.53434118    -0.49700
C984        C  0.97126294  0.41939709  0.67684358     0.42900
H985        H  0.55081203  0.07001541  0.88523304     0.07100
N986        N  0.94777679  0.43512723  0.99542832    -0.46400
C987        C  0.94869944  0.35785410  0.93887513    -0.08900
C988        C  0.97434459  0.35349714  0.90337355     0.07300
C989        C  0.99798463  0.37421265  0.88548970    -0.02700
C990        C  0.99606763  0.39827840  0.90474533    -0.07100
C991        C  0.97087255  0.40208524  0.94205833     0.06400
C992        C  0.94657897  0.38187593  0.95816357    -0.02200
Br993      Br  0.91050243  0.38375073  0.00862561    -0.01800
H994        H  0.93049582  0.34182376  0.95288693     0.10300
H995        H  0.01476967  0.41364114  0.89126478     0.08300
Br996      Br  0.03430681  0.36935814  0.83827350    -0.02300
C997        C  0.95010204  0.36328978  0.80606738    -0.08900
C998        C  0.97494509  0.34509756  0.80331190     0.07300
C999        C  0.99790359  0.35088257  0.75847873    -0.02700
C1000       C  0.99606697  0.37489567  0.71787787    -0.07100
C1001       C  0.97138503  0.39344922  0.72053737     0.06400
C1002       C  0.94803100  0.38716481  0.76524450    -0.02200
Br1003     Br  0.91362052  0.41127931  0.77417429    -0.01800
H1004       H  0.93234212  0.35897215  0.84045625     0.10300
H1005       H  0.01420098  0.37903278  0.68402447     0.08300
Br1006     Br  0.03308074  0.32781727  0.75172799    -0.02300
C1007       C  0.49296447  0.16419173  0.76271284    -0.08900
C1008       C  0.96732259  0.18060162  0.76042101     0.07300
C1009       C  0.94164800  0.17279007  0.80074121    -0.02700
C1010       C  0.94189307  0.14887814  0.84250647    -0.07100
C1011       C  0.96753335  0.13213254  0.84508029     0.06400
C1012       C  0.49329295  0.14003690  0.80412523    -0.02200
Br1013     Br  0.52923744  0.11812369  0.80042979    -0.01800
H1014       H  0.51289073  0.17028234  0.73195775     0.10300
H1015       H  0.92183013  0.14353160  0.87311340     0.08300
Br1016     Br  0.90553926  0.19365313  0.79952966    -0.02300
C1017       C  0.49103397  0.15706333  0.65212499    -0.08900
C1018       C  0.96581288  0.17424766  0.66047223     0.07300
C1019       C  0.93963367  0.16580797  0.65402403    -0.02700
C1020       C  0.93922476  0.14091797  0.63775078    -0.07100
C1021       C  0.96474989  0.12403634  0.62763820     0.06400
C1022       C  0.49063370  0.13186457  0.63655083    -0.02200
Br1023     Br  0.52601188  0.10905179  0.62958219    -0.01800
H1024       H  0.51136089  0.16363724  0.65655478     0.10300
H1025       H  0.91901861  0.13542948  0.63167100     0.08300
Br1026     Br  0.90405714  0.18801417  0.66622896    -0.02300
C1027       C  0.99068433  0.23997056  0.77308273    -0.08900
C1028       C  0.96793832  0.24785488  0.75033123     0.07300
C1029       C  0.94815098  0.27011848  0.76202461    -0.02700
C1030       C  0.95190386  0.28458468  0.79506096    -0.07100
C1031       C  0.97499049  0.27704109  0.81719253     0.06400
C1032       C  0.99421269  0.25412740  0.80659049    -0.02200
Br1033     Br  0.52670642  0.24219600  0.83441955    -0.01800
H1034       H  0.50634292  0.22330901  0.76370406     0.10300
H1035       H  0.93630168  0.30131656  0.80435731     0.08300
Br1036     Br  0.91466301  0.28047068  0.73632191    -0.02300
C1037       C  0.82963265  0.99124620  0.90237372    -0.08900
C1038       C  0.80738436  0.01188294  0.91072753     0.07300
C1039       C  0.81099257  0.03288602  0.93424374    -0.02700
C1040       C  0.83605261  0.03238584  0.95031027    -0.07100
C1041       C  0.85775065  0.01096690  0.94408924     0.06400
C1042       C  0.85475755  0.99062784  0.91879981    -0.02200
Br1043     Br  0.88455016  0.96237344  0.90381103    -0.01800
H1044       H  0.82714394  0.97511510  0.88409469     0.10300
H1045       H  0.83814967  0.04845142  0.96896629     0.08300
Br1046     Br  0.78281135  0.06337800  0.94436021    -0.02300
C1047       C  0.84564318  0.03172850  0.74346013    -0.08900
C1048       C  0.84784147  0.00730683  0.72447657     0.07300
C1049       C  0.82524732  0.98501635  0.74710417    -0.02700
C1050       C  0.80236263  0.98672132  0.78909881    -0.07100
C1051       C  0.80083034  0.01060673  0.80887051     0.06400
C1052       C  0.82235264  0.03363207  0.78487427    -0.02200
Br1053     Br  0.81965398  0.06907719  0.80487065    -0.01800
H1054       H  0.86209465  0.04958200  0.72581745     0.10300
H1055       H  0.78538726  0.96936514  0.80638704     0.08300
Br1056     Br  0.82219334  0.95324712  0.72035024    -0.02300
C1057       C  0.63375091  0.04471634  0.78003032    -0.08900
C1058       C  0.63602346  0.02157554  0.75838652     0.07300
C1059       C  0.61545575  0.49763834  0.78158926    -0.02700
C1060       C  0.59207966  0.49815441  0.82365264    -0.07100
C1061       C  0.58892163  0.02200430  0.84409803     0.06400
C1062       C  0.61074839  0.04508558  0.82257271    -0.02200
Br1063     Br  0.61259479  0.07638220  0.85109173    -0.01800
H1064       H  0.65009189  0.06268603  0.76347249     0.10300
H1065       H  0.57628730  0.47969597  0.84058076     0.08300
Br1066     Br  0.61971263  0.46260097  0.76020922    -0.02300
C1067       C  0.62727574  0.99665048  0.63798971    -0.08900
C1068       C  0.62955878  0.02044728  0.65617815     0.07300
C1069       C  0.60750158  0.04196907  0.65665498    -0.02700
C1070       C  0.58355433  0.03924958  0.63928756    -0.07100
C1071       C  0.58139015  0.01567680  0.62029705     0.06400
C1072       C  0.60348763  0.99392067  0.62035405    -0.02200
Br1073     Br  0.60451824  0.96136350  0.59321651    -0.01800
H1074       H  0.64459098  0.98036618  0.63649849     0.10300
H1075       H  0.56695739  0.05620736  0.63932374     0.08300
Br1076     Br  0.61063314  0.57719572  0.67485767    -0.02300
C1077       C  0.69709475  0.49678438  0.78724993    -0.08900
C1078       C  0.70310553  0.02256327  0.74684649     0.07300
C1079       C  0.72454531  0.04331835  0.74269481    -0.02700
C1080       C  0.73973128  0.03790842  0.77860428    -0.07100
C1081       C  0.73371336  0.01210503  0.81899574     0.06400
C1082       C  0.71218780  0.49143083  0.82322677    -0.02200
Br1083     Br  0.70369230  0.45483308  0.87591320    -0.01800
H1084       H  0.68117719  0.48036000  0.79011642     0.10300
H1085       H  0.75566312  0.05431035  0.77578202     0.08300
Br1086     Br  0.73264972  0.08011559  0.69038884    -0.02300
N1087       N  0.65961236  0.02272207  0.21355507    -0.03200
C1088       C  0.68903022  0.52578955  0.20702829    -0.00600
C1089       C  0.70493074  0.52799549  0.15848310    -0.23500
C1090       C  0.68462669  0.52669857  0.13392299    -0.23700
C1091       C  0.65705503  0.02380490  0.16829684    -0.00700
H1092       H  0.72876974  0.52932027  0.14306779     0.13000
H1093       H  0.68943350  0.52737044  0.09531018     0.13100
N1094       N  0.77715092  0.51107914  0.35284102    -0.03200
C1095       C  0.74768318  0.50881419  0.35894560    -0.00600
C1096       C  0.73169163  0.50674325  0.40737329    -0.23500
C1097       C  0.75196103  0.50730816  0.43232817    -0.23700
C1098       C  0.77962429  0.51020879  0.39808169    -0.00700
H1099       H  0.70783781  0.50562695  0.42260996     0.13000
H1100       H  0.74704800  0.50593269  0.47124788     0.13100
N1101       N  0.96753109  0.70472051  0.21656020    -0.03200
C1102       C  0.96669240  0.73422171  0.21185669    -0.00600
C1103       C  0.96690026  0.75030109  0.16400832    -0.23500
C1104       C  0.96731753  0.72993999  0.13868004    -0.23700
C1105       C  0.96766326  0.70224900  0.17185576    -0.00700
H1106       H  0.96708305  0.77422389  0.14899013     0.13000
H1107       H  0.96712469  0.73474858  0.10043330     0.13100
N1108       N  0.97707662  0.82173668  0.34683663    -0.03200
C1109       C  0.97756117  0.79196071  0.35345466    -0.00600
C1110       C  0.97754141  0.77685945  0.40161110    -0.23500
C1111       C  0.97720855  0.79798570  0.42536812    -0.23700
C1112       C  0.97699891  0.82521936  0.39094942    -0.00700
H1113       H  0.97662447  0.75304036  0.41828399     0.13000
H1114       H  0.97637832  0.79394313  0.46393464     0.13100
C1115       C  0.55713704  0.51586165  0.09784489     0.42700
N1116       N  0.52960698  0.00264414  0.06096770     0.01600
C1117       C  0.94024739  0.59247064  0.42972989    -0.06300
H1118       H  0.91492194  0.58965068  0.11726323     0.07100
C1119       C  0.88812084  0.98115749  0.16566962    -0.06600
Co1120     Co  0.50402964  0.55489225  0.00039032     0.74200
N1121       N  0.94913101  0.57186629  0.06731903    -0.25800
Co1122     Co  0.92746523  0.54841952  0.03698756     0.74100
C1123       C  0.87312098  0.50670705  0.18026216     0.42800
N1124       N  0.95709724  0.94953091  0.11698306     0.01200
N1125       N  0.90469670  0.52191709  0.10792738     0.01300
N1126       N  0.99012756  0.59640721  0.40734953    -0.46700
H1127       H  0.54836914  0.56537150  0.06568804     0.07100
N1128       N  0.97826493  0.57443245  0.05320940     0.01600
N1129       N  0.90740441  0.52362587  0.50655559     0.01300
C1130       C  0.88253846  0.51022104  0.46550150     0.42900
N1131       N  0.98626993  0.95210519  0.10181966    -0.25300
C1132       C  0.54787466  0.54646187  0.40367134    -0.06200
N1133       N  0.54719049  0.99220671  0.08963686    -0.46400
N1134       N  0.89149011  0.53393500  0.47505940    -0.46600
C1135       C  0.56327513  0.52144806  0.38818974     0.42700
N1136       N  0.97968789  0.57719786  0.45193932     0.01600
N1137       N  0.98705291  0.95481749  0.50103515    -0.25300
N1138       N  0.52752032  0.53180153  0.04949636    -0.25800
N1139       N  0.95792502  0.95206696  0.01608973     0.01200
H1140       H  0.52087572  0.93598306  0.45204858     0.07100
H1141       H  0.88954702  0.96066827  0.50135963     0.07200
N1142       N  0.95055352  0.57457208  0.46600958    -0.25800
N1143       N  0.90692276  0.49273727  0.12033667    -0.25400
N1144       N  0.53158708  0.00510597  0.46005046     0.01600
C1145       C  0.96419570  0.59967214  0.10560489     0.43000
C1146       C  0.99716335  0.93399396  0.13704658    -0.06700
N1147       N  0.90902370  0.49442910  0.01923460    -0.25400
H1148       H  0.88489248  0.95771862  0.18506078     0.07500
N1149       N  0.98811631  0.59105973  0.07476770    -0.46700
H1150       H  0.52042724  0.93056397  0.13410512     0.07100
C1151       C  0.97144992  0.92608872  0.46486830     0.42800
C1152       C  0.54409482  0.54217970  0.07125469    -0.06200
Co1153     Co  0.50905591  0.97822926  0.03085135     0.73800
N1154       N  0.94720783  0.92996186  0.16144233    -0.46400
C1155       C  0.96658323  0.60687432  0.39045682     0.43100
N1156       N  0.55172467  0.99651328  0.42489460    -0.46400
Co1157     Co  0.93230605  0.97167978  0.06887659     0.73900
C1158       C  0.89375504  0.98391128  0.49558628    -0.06700
C1159       C  0.93819620  0.58708370  0.10032068    -0.06300
N1160       N  0.52919056  0.53424607  0.44866470    -0.25800
N1161       N  0.88487305  0.53114355  0.14265261    -0.46600
H1162       H  0.91710853  0.59571944  0.43152994     0.07100
C1163       C  0.99767531  0.93922555  0.46847377    -0.06700
Cl1164     Cl  0.96821316  0.51330163  0.03434112    -0.49700
C1165       C  0.97126291  0.91939710  0.17684364     0.42900
H1166       H  0.55081197  0.57001549  0.38523306     0.07100
N1167       N  0.94777676  0.93512723  0.49542837    -0.46400
C1168       C  0.94869941  0.85785408  0.43887523    -0.08900
C1169       C  0.97434455  0.85349711  0.40337365     0.07300
C1170       C  0.99798457  0.87421265  0.38548969    -0.02700
C1171       C  0.99606757  0.89827842  0.40474528    -0.07100
C1172       C  0.97087251  0.90208526  0.44205833     0.06400
C1173       C  0.94657893  0.88187594  0.45816359    -0.02200
Br1174     Br  0.91050236  0.88375082  0.50862551    -0.01800
H1175       H  0.93049579  0.84182373  0.45288707     0.10300
H1176       H  0.01476960  0.91364119  0.39126468     0.08300
Br1177     Br  0.03430669  0.86935820  0.33827334    -0.02300
C1178       C  0.95010200  0.86328983  0.30606748    -0.08900
C1179       C  0.97494502  0.84509756  0.30331200     0.07300
C1180       C  0.99790351  0.85088254  0.25847882    -0.02700
C1181       C  0.99606693  0.87489566  0.21787795    -0.07100
C1182       C  0.97138499  0.89344924  0.22053746     0.06400
C1183       C  0.94803097  0.88716485  0.26524460    -0.02200
Br1184     Br  0.91362052  0.91127937  0.27417441    -0.01800
H1185       H  0.93234209  0.85897221  0.34045636     0.10300
H1186       H  0.01420092  0.87903274  0.18402458     0.08300
Br1187     Br  0.03308059  0.82781713  0.25172808    -0.02300
C1188       C  0.49296435  0.66419166  0.26271277    -0.08900
C1189       C  0.96732254  0.68060161  0.26042104     0.07300
C1190       C  0.94164796  0.67279008  0.30074129    -0.02700
C1191       C  0.94189304  0.64887815  0.34250653    -0.07100
C1192       C  0.96753331  0.63213252  0.34508028     0.06400
C1193       C  0.49329284  0.64003684  0.30412519    -0.02200
Br1194     Br  0.52923730  0.61812357  0.30042962    -0.01800
H1195       H  0.51289055  0.67028222  0.23195763     0.10300
H1196       H  0.92183012  0.64353163  0.37311351     0.08300
Br1197     Br  0.90553921  0.69365313  0.29952978    -0.02300
C1198       C  0.49103406  0.65706348  0.15212460    -0.08900
C1199       C  0.96581285  0.67424764  0.16047226     0.07300
C1200       C  0.93963361  0.66580787  0.15402425    -0.02700
C1201       C  0.93922472  0.64091788  0.13775098    -0.07100
C1202       C  0.96474989  0.62403632  0.12763820     0.06400
C1203       C  0.49063383  0.63186472  0.13655041    -0.02200
Br1204     Br  0.52601214  0.60905216  0.12958128    -0.01800
H1205       H  0.51136099  0.66363751  0.15655417     0.10300
H1206       H  0.91901853  0.63542932  0.13167135     0.08300
Br1207     Br  0.90405702  0.68801395  0.16622952    -0.02300
C1208       C  0.99068420  0.73997057  0.27308277    -0.08900
C1209       C  0.96793819  0.74785489  0.25033127     0.07300
C1210       C  0.94815086  0.77011851  0.26202463    -0.02700
C1211       C  0.95190375  0.78458472  0.29506094    -0.07100
C1212       C  0.97499036  0.77704110  0.31719257     0.06400
C1213       C  0.99421255  0.75412741  0.30659055    -0.02200
Br1214     Br  0.52670640  0.74219610  0.33441940    -0.01800
H1215       H  0.50634277  0.72330897  0.26370415     0.10300
H1216       H  0.93630158  0.80131662  0.30435727     0.08300
Br1217     Br  0.91466284  0.78047066  0.23632204    -0.02300
C1218       C  0.82963266  0.49124612  0.40237370    -0.08900
C1219       C  0.80738438  0.51188288  0.41072748     0.07300
C1220       C  0.81099261  0.53288595  0.43424373    -0.02700
C1221       C  0.83605266  0.53238576  0.45031024    -0.07100
C1222       C  0.85775069  0.51096682  0.44408920     0.06400
C1223       C  0.85475757  0.49062775  0.41879980    -0.02200
Br1224     Br  0.88455014  0.46237329  0.40381114    -0.01800
H1225       H  0.82714393  0.47511502  0.38409470     0.10300
H1226       H  0.83814972  0.54845133  0.46896627     0.08300
Br1227     Br  0.78281137  0.56337788  0.44436036    -0.02300
C1228       C  0.84564320  0.53172845  0.24346007    -0.08900
C1229       C  0.84784149  0.50730678  0.22447652     0.07300
C1230       C  0.82524734  0.48501631  0.24710412    -0.02700
C1231       C  0.80236262  0.48672129  0.28909873    -0.07100
C1232       C  0.80083033  0.51060670  0.30887044     0.06400
C1233       C  0.82235266  0.53363203  0.28487420    -0.02200
Br1234     Br  0.81965403  0.56907716  0.30487057    -0.01800
H1235       H  0.86209468  0.54958195  0.22581741     0.10300
H1236       H  0.78538726  0.46936512  0.30638696     0.08300
Br1237     Br  0.82219339  0.45324700  0.22035031    -0.02300
C1238       C  0.63375083  0.54471648  0.28003024    -0.08900
C1239       C  0.63602343  0.52157567  0.25838648     0.07300
C1240       C  0.61545569  0.99763828  0.28158939    -0.02700
C1241       C  0.59207958  0.99815437  0.32365273    -0.07100
C1242       C  0.58892160  0.52200441  0.34409800     0.06400
C1243       C  0.61074833  0.54508573  0.32257263    -0.02200
Br1244     Br  0.61259474  0.57638233  0.35109168    -0.01800
H1245       H  0.65009182  0.56268623  0.26347234     0.10300
H1246       H  0.57628722  0.97969592  0.34058085     0.08300
Br1247     Br  0.61971261  0.96260086  0.26020944    -0.02300
C1248       C  0.62727570  0.49665058  0.13798975    -0.08900
C1249       C  0.62955874  0.52044740  0.15617814     0.07300
C1250       C  0.60750157  0.54196923  0.15665485    -0.02700
C1251       C  0.58355434  0.53924974  0.13928738    -0.07100
C1252       C  0.58139017  0.51567693  0.12029691     0.06400
C1253       C  0.60348763  0.49392079  0.12035398    -0.02200
Br1254     Br  0.60451831  0.46136365  0.09321636    -0.01800
H1255       H  0.64459093  0.48036626  0.13649860     0.10300
H1256       H  0.56695741  0.55620754  0.13932348     0.08300
Br1257     Br  0.61063310  0.07719562  0.17485782    -0.02300
C1258       C  0.69709471  0.99678441  0.28725005    -0.08900
C1259       C  0.70310550  0.52256335  0.24684644     0.07300
C1260       C  0.72454530  0.54331841  0.24269481    -0.02700
C1261       C  0.73973126  0.53790845  0.27860429    -0.07100
C1262       C  0.73371333  0.51210504  0.31899571     0.06400
C1263       C  0.71218780  0.99143084  0.32322682    -0.02200
Br1264     Br  0.70369237  0.95483307  0.37591321    -0.01800
H1265       H  0.68117715  0.98036002  0.29011655     0.10300
H1266       H  0.75566311  0.55431037  0.27578206     0.08300
Br1267     Br  0.73264972  0.58011568  0.19038890    -0.02300
N1268       N  0.65961240  0.02272200  0.71355508    -0.03200
C1269       C  0.68903025  0.52578954  0.70702816    -0.00600
C1270       C  0.70493075  0.52799550  0.65848294    -0.23500
C1271       C  0.68462667  0.52669858  0.63392289    -0.23700
C1272       C  0.65705509  0.02380486  0.66829682    -0.00700
H1273       H  0.72876974  0.52932030  0.64306760     0.13000
H1274       H  0.68943348  0.52737045  0.59531004     0.13100
N1275       N  0.77715090  0.51107914  0.85284106    -0.03200
C1276       C  0.74768316  0.50881424  0.85894555    -0.00600
C1277       C  0.73169158  0.50674329  0.90737323    -0.23500
C1278       C  0.75196096  0.50730816  0.93232819    -0.23700
C1279       C  0.77962423  0.51020877  0.89808175    -0.00700
H1280       H  0.70783776  0.50562700  0.92260985     0.13000
H1281       H  0.74704790  0.50593268  0.97124790     0.13100
N1282       N  0.96753112  0.70472056  0.71656012    -0.03200
C1283       C  0.96669240  0.73422175  0.71185667    -0.00600
C1284       C  0.96690024  0.75030114  0.66400833    -0.23500
C1285       C  0.96731751  0.72994007  0.63868003    -0.23700
C1286       C  0.96766326  0.70224907  0.67185568    -0.00700
H1287       H  0.96708302  0.77422396  0.64899017     0.13000
H1288       H  0.96712465  0.73474869  0.60043326     0.13100
N1289       N  0.97707661  0.82173666  0.84683663    -0.03200
C1290       C  0.97756116  0.79196068  0.85345470    -0.00600
C1291       C  0.97754138  0.77685944  0.90161116    -0.23500
C1292       C  0.97720851  0.79798569  0.92536818    -0.23700
C1293       C  0.97699888  0.82521934  0.89094943    -0.00700
H1294       H  0.97662443  0.75304034  0.91828407     0.13000
H1295       H  0.97637827  0.79394314  0.96393466     0.13100
C1296       C  0.55713697  0.51586159  0.59784500     0.42700
N1297       N  0.52960695  0.00264416  0.56096779     0.01600
C1298       C  0.94024739  0.59247066  0.92972986    -0.06300
H1299       H  0.91492200  0.58965071  0.61726324     0.07100
C1300       C  0.88812085  0.98115749  0.66566969    -0.06600
Co1301     Co  0.50402962  0.55489223  0.50039038     0.74200
N1302       N  0.94913103  0.57186630  0.56731903    -0.25800
Co1303     Co  0.92746522  0.54841952  0.53698758     0.74100
C1304       C  0.87312096  0.50670709  0.68026219     0.42800
N1305       N  0.95709725  0.94953094  0.61698312     0.01200
N1306       N  0.90469668  0.52191712  0.60792740     0.01300
N1307       N  0.99012756  0.59640725  0.90734952    -0.46700
H1308       H  0.54836910  0.56537145  0.56568816     0.07100
N1309       N  0.97826495  0.57443246  0.55320938     0.01600
N1310       N  0.90740442  0.52362587  0.00655556     0.01300
C1311       C  0.88253839  0.51022103  0.96550161     0.42900
N1312       N  0.98626995  0.95210522  0.60181973    -0.25300
C1313       C  0.54787473  0.54646189  0.90367130    -0.06200
N1314       N  0.54719047  0.99220674  0.58963694    -0.46400
N1315       N  0.89149006  0.53393499  0.97505946    -0.46600
C1316       C  0.56327519  0.52144807  0.88818969     0.42700
N1317       N  0.97968789  0.57719789  0.95193930     0.01600
N1318       N  0.98705291  0.95481749  0.00103508    -0.25300
N1319       N  0.52752029  0.53180151  0.54949644    -0.25800
N1320       N  0.95792502  0.95206695  0.51608981     0.01200
H1321       H  0.52087573  0.93598309  0.95204848     0.07100
H1322       H  0.88954703  0.96066835  0.00135948     0.07200
N1323       N  0.95055351  0.57457210  0.96600955    -0.25800
N1324       N  0.90692274  0.49273730  0.62033671    -0.25400
N1325       N  0.53158709  0.00510593  0.96005040     0.01600
C1326       C  0.96419576  0.59967217  0.60560483     0.43000
C1327       C  0.99716337  0.93399401  0.63704668    -0.06700
N1328       N  0.90902368  0.49442910  0.51923463    -0.25400
H1329       H  0.88489249  0.95771864  0.68506085     0.07500
N1330       N  0.98811635  0.59105974  0.57476764    -0.46700
H1331       H  0.52042721  0.93056401  0.63410528     0.07100
C1332       C  0.97144994  0.92608871  0.96486824     0.42800
C1333       C  0.54409478  0.54217966  0.57125478    -0.06200
Co1334     Co  0.50905590  0.97822927  0.53085142     0.73800
N1335       N  0.94720783  0.92996191  0.66144240    -0.46400
C1336       C  0.96658323  0.60687436  0.89045680     0.43100
N1337       N  0.55172470  0.99651323  0.92489457    -0.46400
Co1338     Co  0.93230605  0.97167978  0.56887666     0.73900
C1339       C  0.89375504  0.98391132  0.99558618    -0.06700
C1340       C  0.93819624  0.58708373  0.60032067    -0.06300
N1341       N  0.52919060  0.53424608  0.94866464    -0.25800
N1342       N  0.88487303  0.53114359  0.64265261    -0.46600
H1343       H  0.91710853  0.59571946  0.93152990     0.07100
C1344       C  0.99767532  0.93922555  0.96847372    -0.06700
Cl1345     Cl  0.96821315  0.51330162  0.53434115    -0.49700
C1346       C  0.97126290  0.91939716  0.67684375     0.42900
H1347       H  0.55081205  0.57001550  0.88523304     0.07100
N1348       N  0.94777677  0.93512723  0.99542829    -0.46400
C1349       C  0.94869937  0.85785413  0.93887508    -0.08900
C1350       C  0.97434454  0.85349709  0.90337364     0.07300
C1351       C  0.99798464  0.87421252  0.88548986    -0.02700
C1352       C  0.99606765  0.89827829  0.90474544    -0.07100
C1353       C  0.97087255  0.90208523  0.94205832     0.06400
C1354       C  0.94657892  0.88187598  0.95816345    -0.02200
Br1355     Br  0.91050229  0.88375094  0.00862522    -0.01800
H1356       H  0.93049569  0.84182384  0.95288681     0.10300
H1357       H  0.01476975  0.91364099  0.89126495     0.08300
Br1358     Br  0.03430683  0.86935786  0.83827383    -0.02300
C1359       C  0.95010197  0.86328978  0.80606749    -0.08900
C1360       C  0.97494500  0.84509754  0.80331200     0.07300
C1361       C  0.99790351  0.85088256  0.75847883    -0.02700
C1362       C  0.99606691  0.87489571  0.71787801    -0.07100
C1363       C  0.97138498  0.89344927  0.72053753     0.06400
C1364       C  0.94803094  0.88716482  0.76524466    -0.02200
Br1365     Br  0.91362045  0.91127930  0.77417451    -0.01800
H1366       H  0.93234204  0.85897213  0.84045637     0.10300
H1367       H  0.01420092  0.87903282  0.68402461     0.08300
Br1368     Br  0.03308061  0.82781720  0.75172801    -0.02300
C1369       C  0.49296433  0.66419173  0.76271272    -0.08900
C1370       C  0.96732255  0.68060164  0.76042096     0.07300
C1371       C  0.94164800  0.67279017  0.80074126    -0.02700
C1372       C  0.94189306  0.64887824  0.84250654    -0.07100
C1373       C  0.96753332  0.63213256  0.84508024     0.06400
C1374       C  0.49329283  0.64003693  0.80412516    -0.02200
Br1375     Br  0.52923730  0.61812368  0.80042955    -0.01800
H1376       H  0.51289054  0.67028230  0.73195759     0.10300
H1377       H  0.92183017  0.64353176  0.87311353     0.08300
Br1378     Br  0.90553928  0.69365329  0.79952973    -0.02300
C1379       C  0.49103406  0.65706353  0.65212456    -0.08900
C1380       C  0.96581289  0.67424772  0.66047213     0.07300
C1381       C  0.93963363  0.66580784  0.65402435    -0.02700
C1382       C  0.93922476  0.64091782  0.63775113    -0.07100
C1383       C  0.96474998  0.62403637  0.62763812     0.06400
C1384       C  0.49063382  0.63186475  0.63655043    -0.02200
Br1385     Br  0.52601211  0.60905215  0.62958142    -0.01800
H1386       H  0.51136100  0.66363755  0.65655415     0.10300
H1387       H  0.91901853  0.63542918  0.63167172     0.08300
Br1388     Br  0.90405699  0.68801383  0.66622975    -0.02300
C1389       C  0.99068415  0.73997052  0.77308289    -0.08900
C1390       C  0.96793818  0.74785489  0.75033131     0.07300
C1391       C  0.94815086  0.77011853  0.76202465    -0.02700
C1392       C  0.95190374  0.78458469  0.79506102    -0.07100
C1393       C  0.97499033  0.77704106  0.81719267     0.06400
C1394       C  0.99421250  0.75412735  0.80659067    -0.02200
Br1395     Br  0.52670629  0.74219601  0.83441956    -0.01800
H1396       H  0.50634273  0.72330896  0.76370420     0.10300
H1397       H  0.93630157  0.80131662  0.80435734     0.08300
Br1398     Br  0.91466294  0.78047084  0.73632185    -0.02300
C1399       C  0.82963258  0.49124606  0.90237389    -0.08900
C1400       C  0.80738432  0.51188285  0.91072760     0.07300
C1401       C  0.81099257  0.53288596  0.93424373    -0.02700
C1402       C  0.83605262  0.53238579  0.95031023    -0.07100
C1403       C  0.85775063  0.51096682  0.94408929     0.06400
C1404       C  0.85475749  0.49062771  0.91879998    -0.02200
Br1405     Br  0.88455005  0.46237322  0.90381137    -0.01800
H1406       H  0.82714384  0.47511493  0.88409496     0.10300
H1407       H  0.83814971  0.54845140  0.96896617     0.08300
Br1408     Br  0.78281137  0.56337796  0.94436018    -0.02300
C1409       C  0.84564320  0.53172844  0.74346019    -0.08900
C1410       C  0.84784147  0.50730681  0.72447657     0.07300
C1411       C  0.82524731  0.48501635  0.74710414    -0.02700
C1412       C  0.80236262  0.48672131  0.78909877    -0.07100
C1413       C  0.80083033  0.51060669  0.80887051     0.06400
C1414       C  0.82235266  0.53363202  0.78487431    -0.02200
Br1415     Br  0.81965400  0.56907715  0.80487069    -0.01800
H1416       H  0.86209469  0.54958195  0.72581753     0.10300
H1417       H  0.78538723  0.46936513  0.80638698     0.08300
Br1418     Br  0.82219333  0.45324712  0.72035017    -0.02300
C1419       C  0.63375088  0.54471653  0.78003011    -0.08900
C1420       C  0.63602348  0.52157569  0.75838639     0.07300
C1421       C  0.61545567  0.99763823  0.78158929    -0.02700
C1422       C  0.59207957  0.99815432  0.82365265    -0.07100
C1423       C  0.58892167  0.52200442  0.84409795     0.06400
C1424       C  0.61074838  0.54508576  0.82257252    -0.02200
Br1425     Br  0.61259476  0.57638244  0.85109144    -0.01800
H1426       H  0.65009183  0.56268627  0.76347219     0.10300
H1427       H  0.57628716  0.97969591  0.84058069     0.08300
Br1428     Br  0.61971247  0.96260087  0.76020922    -0.02300
C1429       C  0.62727567  0.49665053  0.63798973    -0.08900
C1430       C  0.62955872  0.52044735  0.65617812     0.07300
C1431       C  0.60750152  0.54196914  0.65665495    -0.02700
C1432       C  0.58355427  0.53924964  0.63928754    -0.07100
C1433       C  0.58139010  0.51567685  0.62029703     0.06400
C1434       C  0.60348756  0.49392071  0.62035406    -0.02200
Br1435     Br  0.60451815  0.46136353  0.59321657    -0.01800
H1436       H  0.64459091  0.48036622  0.63649852     0.10300
H1437       H  0.56695732  0.55620743  0.63932369     0.08300
Br1438     Br  0.61063319  0.07719564  0.67485775    -0.02300
C1439       C  0.69709472  0.99678435  0.78725015    -0.08900
C1440       C  0.70310554  0.52256332  0.74684631     0.07300
C1441       C  0.72454531  0.54331840  0.74269468    -0.02700
C1442       C  0.73973127  0.53790848  0.77860417    -0.07100
C1443       C  0.73371335  0.51210506  0.81899561     0.06400
C1444       C  0.71218779  0.99143080  0.82322695    -0.02200
Br1445     Br  0.70369228  0.95483307  0.87591343    -0.01800
H1446       H  0.68117714  0.98035997  0.79011667     0.10300
H1447       H  0.75566308  0.55431041  0.77578195     0.08300
Br1448     Br  0.73264963  0.58011568  0.69038879    -0.02300
loop_ 
_geom_bond_atom_site_label_1 
_geom_bond_atom_site_label_2 
_geom_bond_distance 
_geom_bond_site_symmetry_2 
_ccdc_geom_bond_type 
N1            C5   1.357       .  A
N1          C364   1.357       .  A
N1          C515   1.446       .  S
C2          N363   1.357       .  A
C2            C3   1.382       .  A
C2          C173   1.474       .  S
C3            C4   1.372       .  A
C3            H6   1.082       .  S
C4          C367   1.382       .  A
C4            H7   1.082       .  S
C5          C366   1.382       .  A
C5          C525   1.473       .  S
N8           C12   1.358       .  A
N8            C9   1.357       .  A
N8          C146   1.447       .  S
C9           C10   1.381       .  A
C9          C176   1.473       .  S
C10          C11   1.372       .  A
C10          H13   1.082       .  S
C11          C12   1.383       .  A
C11          H14   1.082       .  S
C12         C133   1.476       .  S
N15          C19   1.352       .  A
N15          C16   1.356       .  A
N15         C103   1.442       .  S
C16          C17   1.384       .  A
C16         C123   1.474       .  S
C17          C18   1.375       .  A
C17          H20   1.082       .  S
C18          C19   1.381       .  A
C18          H21   1.082       .  S
C19         C113   1.469       .  S
N22          C26   1.354       .  A
N22          C23   1.359       .  A
N22          C93   1.444       .  S
C23          C24   1.383       .  A
C23         C126   1.477       .  S
C24          C25   1.373       .  A
C24          H27   1.082       .  S
C25          C26   1.381       .  A
C25          H28   1.082       .  S
C26          C83   1.472       .  S
C29         N409   1.349   1_545  A
C29          C66   1.461       .  S
C29         C166   1.478       .  S
N30          N47   1.323       .  A
N30         N414   1.319       .  A
N30         Co67   2.076       .  S
C31          N56   1.342       .  A
C31          C69   1.466       .  S
C31          H76   1.081       .  S
H32          C73   1.081       .  S
C33         N419   1.344       .  A
C33         C399   1.467       .  S
C33          H62   1.081       .  S
Co34         N52   2.084       .  S
Co34        N766   2.083   1_455  S
Co34        N255   2.084   1_554  S
Co34        N955   2.089   1_454  S
Co34       Cl802   2.449   1_455  S
N35          C73   1.340       .  A
N35          N42   1.319       .  A
N35         Co36   2.082       .  S
Co36         N39   2.096       .  S
Co36        N237   2.095   1_554  S
Co36        N224   2.081       .  S
Co36        Cl78   2.453       .  S
C37          N75   1.352       .  A
C37         C143   1.493       .  S
C37         C395   1.467   1_545  S
N38          N45   1.320       .  A
N38          N68   1.328       .  A
N38         Co71   2.095       .  S
N39          N57   1.320   1_545  A
N39          N75   1.327       .  A
N40          C69   1.353       .  A
N40          N50   1.327       .  A
H41          C66   1.080       .  S
N42          N63   1.323       .  A
N42        Co758   2.083       .  S
N43          N48   1.323       .  A
N43         N242   1.318   1_545  A
N43        Co217   2.081       .  S
C44          N48   1.352       .  A
C44         C136   1.477       .  S
C44         C434   1.462   1_545  S
N45          C60   1.340       .  A
N45        Co791   2.091       .  S
C46          N74   1.340       .  A
C46          C49   1.462       .  S
C46          H80   1.080       .  S
N47         C391   1.349       .  A
C49         N432   1.354   1_545  A
C49         C156   1.489       .  S
N50          N56   1.319       .  A
N50        Co939   2.089       .  S
N51          C77   1.341       .  A
N51         N234   1.319       .  A
N51        Co972   2.080       .  S
N52          C66   1.339       .  A
N52         N392   1.319       .  A
N53         N232   1.319       .  A
N53         N262   1.322   1_554  A
N53         Co71   2.082       .  S
H54         C801   1.081   1_455  S
H55          C72   1.081       .  S
N56        Co217   2.095       .  S
N57         C395   1.344       .  A
N57        Co433   2.095       .  S
N58          N70   1.327       .  A
N58         N436   1.320       .  A
N58        Co248   2.096       .  S
C59          N63   1.350       .  A
C59          C73   1.465       .  S
C59         C116   1.482       .  S
C60          C79   1.462       .  S
C60         H788   1.081       .  S
N61         C615   1.340   1_554  A
N61         N224   1.318   1_565  A
N61        Co433   2.084       .  S
H64         C784   1.081   1_455  S
C65          N81   1.348       .  A
C65          C77   1.465       .  S
C65          C86   1.483       .  S
Co67        N769   2.091   1_455  S
Co67        N956   2.080   1_455  S
Co67        N239   2.096   1_554  S
Co67      Cl1164   2.455   1_455  S
N68          C79   1.355       .  A
C69         C106   1.493       .  S
N70         C411   1.354       .  A
Co71        N419   2.095       .  S
Co71        N423   2.084       .  S
Co71       Cl440   2.452       .  S
C72         N604   1.340       .  A
C72         C406   1.462       .  S
N74         N420   1.320       .  A
N74        Co215   2.084       .  S
C77         H778   1.081       .  S
Cl78       Co758   2.449       .  S
Cl78      Co1153   2.455   1_545  S
Cl78       Co433   2.452   1_545  S
C79          C96   1.489       .  S
N81         N234   1.322       .  A
C82          C83   1.398       .  A
C82          C87   1.396       .  A
C82          H89   1.084       .  S
C83          C84   1.405       .  A
C84          C85   1.398       .  A
C84         Br91   1.915       .  S
C85          C86   1.406       .  A
C85          H90   1.083       .  S
C86          C87   1.417       .  A
C87         Br88   1.922       .  S
C92          C93   1.404       .  A
C92          C97   1.404       .  A
C92          H99   1.083       .  S
C93          C94   1.407       .  A
C94          C95   1.400       .  A
C94        Br101   1.917       .  S
C95          C96   1.408       .  A
C95         H100   1.082       .  S
C96          C97   1.414       .  A
C97         Br98   1.919       .  S
C102        C107   1.402       .  A
C102        C827   1.400       .  A
C102        H109   1.082   1_655  S
C103        C104   1.404       .  A
C103        C826   1.400       .  A
C104        C105   1.402       .  A
C104       Br111   1.915       .  S
C105        C106   1.409       .  A
C105        H110   1.082       .  S
C106        C831   1.417       .  A
C107        C830   1.417       .  A
C107       Br108   1.920   1_655  S
C112        C117   1.398       .  A
C112        C837   1.398       .  A
C112        H119   1.082   1_655  S
C113        C114   1.404       .  A
C113        C836   1.398       .  A
C114        C115   1.396       .  A
C114       Br121   1.919       .  S
C115        C116   1.407       .  A
C115        H120   1.081       .  S
C116        C841   1.416       .  A
C117        C840   1.416       .  A
C117       Br118   1.919   1_655  S
C122        C123   1.400       .  A
C122        C127   1.395       .  A
C122        H853   1.083       .  S
C123        C124   1.411       .  A
C124        C125   1.397       .  A
C124       Br131   1.920       .  S
C125        C126   1.402       .  A
C125        H130   1.083       .  S
C126        C127   1.412       .  A
C127       Br852   1.920       .  S
Br128       C851   1.920   1_455  S
H129        C846   1.083   1_455  S
C132        C133   1.402   1_565  A
C132        C137   1.401       .  A
C132        H139   1.083       .  S
C133        C134   1.410       .  A
C134        C135   1.393       .  A
C134       Br141   1.922       .  S
C135        C136   1.402       .  A
C135        H140   1.083       .  S
C136        C137   1.413   1_545  A
C137       Br138   1.920       .  S
C142        C143   1.408       .  A
C142        C147   1.404       .  A
C142        H149   1.083       .  S
C143        C144   1.416   1_545  A
C144        C145   1.403       .  A
C144       Br151   1.918       .  S
C145        C146   1.402   1_565  A
C145        H150   1.083       .  S
C146        C147   1.408       .  A
C147       Br148   1.915       .  S
C152        C153   1.402       .  A
C152        C157   1.401       .  A
C152        H159   1.083       .  S
C153        N363   1.446       .  S
C153        C516   1.409   1_545  A
C154        C155   1.402       .  A
C154        C515   1.409       .  A
C154       Br161   1.914       .  S
C155        C518   1.406       .  A
C155        H160   1.084       .  S
C156        C157   1.417       .  A
C156        C517   1.406   1_545  A
C157       Br158   1.920       .  S
C162        C163   1.401   1_565  A
C162        C167   1.395       .  A
C162        H169   1.084       .  S
C163        C164   1.405       .  A
C163        C367   1.473       .  S
C164        C165   1.397       .  A
C164       Br533   1.917       .  S
C165        C166   1.406       .  A
C165        H170   1.082       .  S
C166        C167   1.414   1_545  A
C167       Br168   1.921       .  S
Br171       C526   1.917       .  S
C172        C177   1.396       .  A
C172        C535   1.401       .  A
C172        H179   1.083       .  S
C173        C174   1.410       .  A
C173        C534   1.401   1_545  A
C174        C175   1.398       .  A
C174       Br181   1.919       .  S
C175        C176   1.401       .  A
C175        H180   1.084       .  S
C176        C539   1.409   1_545  A
C177        C538   1.409       .  A
C177       Br178   1.919       .  S
N182        C186   1.357       .  A
N182        C545   1.357       .  A
N182        C696   1.446       .  S
C183        N544   1.357       .  A
C183        C184   1.382       .  A
C183        C354   1.474       .  S
C184        C185   1.372       .  A
C184        H187   1.082       .  S
C185        C548   1.382       .  A
C185        H188   1.082       .  S
C186        C547   1.382       .  A
C186        C706   1.473       .  S
N189        C193   1.358       .  A
N189        C190   1.357       .  A
N189        C327   1.447       .  S
C190        C191   1.381       .  A
C190        C357   1.473       .  S
C191        C192   1.372       .  A
C191        H194   1.082       .  S
C192        C193   1.383       .  A
C192        H195   1.082       .  S
C193        C314   1.476       .  S
N196        C200   1.352       .  A
N196        C197   1.356       .  A
N196        C284   1.442       .  S
C197        C198   1.384       .  A
C197        C304   1.474       .  S
C198        C199   1.375       .  A
C198        H201   1.082       .  S
C199        C200   1.381       .  A
C199        H202   1.082       .  S
C200        C294   1.469       .  S
N203        C207   1.354       .  A
N203        C204   1.359       .  A
N203        C274   1.444       .  S
C204        C205   1.383       .  A
C204        C307   1.477       .  S
C205        C206   1.373       .  A
C205        H208   1.082       .  S
C206        C207   1.381       .  A
C206        H209   1.082       .  S
C207        C264   1.472       .  S
C210        N590   1.349   1_545  A
C210        C247   1.461       .  S
C210        C347   1.478       .  S
N211        N228   1.323       .  A
N211        N595   1.319       .  A
N211       Co248   2.076       .  S
C212        N237   1.342       .  A
C212        C250   1.466       .  S
C212        H257   1.081       .  S
H213        C254   1.081       .  S
C214        N600   1.344       .  A
C214        C580   1.467       .  S
C214        H243   1.081       .  S
Co215       N233   2.084       .  S
Co215       N947   2.083   1_455  S
Co215       N774   2.089   1_455  S
Co215      Cl983   2.449   1_455  S
N216        C254   1.340       .  A
N216        N223   1.319       .  A
N216       Co217   2.082       .  S
Co217       N220   2.096       .  S
Co217      Cl259   2.453       .  S
C218        N256   1.352       .  A
C218        C576   1.467   1_545  S
C218        C324   1.493       .  S
N219        N226   1.320       .  A
N219        N249   1.328       .  A
N219       Co252   2.095       .  S
N220        N238   1.320   1_545  A
N220        N256   1.327       .  A
N221        C250   1.353       .  A
N221        N231   1.327       .  A
H222        C247   1.080       .  S
N223        N244   1.323       .  A
N223       Co939   2.083       .  S
N224        N229   1.323   1_554  A
C225        N229   1.352       .  A
C225        C615   1.462   1_545  S
C225        C317   1.477       .  S
N226        C241   1.340       .  A
N226       Co972   2.091       .  S
C227        N255   1.340       .  A
C227        C230   1.462       .  S
C227        H261   1.080       .  S
N228        C572   1.349       .  A
C230        N613   1.354   1_545  A
C230        C337   1.489       .  S
N231        N237   1.319       .  A
N231       Co758   2.089   1_556  S
N232        C258   1.341   1_554  A
N232       Co791   2.080       .  S
N233        C247   1.339       .  A
N233        N573   1.319       .  A
N234       Co252   2.082       .  S
H235        C982   1.081   1_455  S
H236        C253   1.081   1_554  S
N238        C576   1.344       .  A
N238       Co614   2.095       .  S
N239        N251   1.327       .  A
N239        N617   1.320       .  A
C240        N244   1.350       .  A
C240        C254   1.465       .  S
C240        C297   1.482       .  S
C241        C260   1.462       .  S
C241        H969   1.081       .  S
N242        C434   1.340       .  A
N242       Co614   2.084       .  S
H245        C965   1.081   1_455  S
C246        N262   1.348       .  A
C246        C258   1.465       .  S
C246        C267   1.483       .  S
Co248       N950   2.091   1_455  S
Co248       N775   2.080   1_455  S
Co248     Cl1345   2.455   1_455  S
N249        C260   1.355       .  A
C250        C287   1.493       .  S
N251        C592   1.354       .  A
Co252       N600   2.095       .  S
Co252       N604   2.084       .  S
Co252      Cl621   2.452       .  S
C253        N423   1.340   1_556  A
C253        C587   1.462       .  S
N255        N601   1.320       .  A
C258        H959   1.081       .  S
Cl259      Co939   2.449       .  S
Cl259     Co1334   2.455   1_545  S
Cl259      Co614   2.452   1_545  S
C260        C277   1.489       .  S
C263        C264   1.398       .  A
C263        C268   1.396       .  A
C263        H270   1.084       .  S
C264        C265   1.405       .  A
C265        C266   1.398       .  A
C265       Br272   1.915       .  S
C266        C267   1.406       .  A
C266        H271   1.083       .  S
C267        C268   1.417       .  A
C268       Br269   1.922   1_556  S
C273        C274   1.404       .  A
C273        C278   1.404       .  A
C273        H280   1.083       .  S
C274        C275   1.407       .  A
C275        C276   1.400       .  A
C275       Br282   1.917       .  S
C276        C277   1.408       .  A
C276        H281   1.082       .  S
C277        C278   1.414       .  A
C278       Br279   1.919       .  S
C283       C1008   1.400       .  A
C283        C288   1.402       .  A
C283        H290   1.082   1_655  S
C284       C1007   1.400       .  A
C284        C285   1.404       .  A
C285        C286   1.402       .  A
C285       Br292   1.915       .  S
C286        C287   1.409       .  A
C286        H291   1.082       .  S
C287       C1012   1.417       .  A
C288       C1011   1.417       .  A
C288       Br289   1.920   1_655  S
C293       C1018   1.398       .  A
C293        C298   1.398       .  A
C293        H300   1.082   1_655  S
C294       C1017   1.398       .  A
C294        C295   1.404       .  A
C295        C296   1.396       .  A
C295       Br302   1.919       .  S
C296        C297   1.407       .  A
C296        H301   1.081       .  S
C297       C1022   1.416       .  A
C298       C1021   1.416       .  A
C298       Br299   1.919   1_655  S
C303        C304   1.400       .  A
C303        C308   1.395       .  A
C303       H1034   1.083       .  S
C304        C305   1.411       .  A
C305        C306   1.397       .  A
C305       Br312   1.920       .  S
C306        C307   1.402       .  A
C306        H311   1.083       .  S
C307        C308   1.412       .  A
C308      Br1033   1.920       .  S
Br309      C1032   1.920   1_455  S
H310       C1027   1.083   1_455  S
C313        C314   1.402   1_565  A
C313        C318   1.401       .  A
C313        H320   1.083       .  S
C314        C315   1.410       .  A
C315        C316   1.393       .  A
C315       Br322   1.922       .  S
C316        C317   1.402       .  A
C316        H321   1.083       .  S
C317        C318   1.413   1_545  A
C318       Br319   1.920       .  S
C323        C324   1.408       .  A
C323        C328   1.404       .  A
C323        H330   1.083       .  S
C324        C325   1.416   1_545  A
C325        C326   1.403       .  A
C325       Br332   1.918       .  S
C326        C327   1.402   1_565  A
C326        H331   1.083       .  S
C327        C328   1.408       .  A
C328       Br329   1.915       .  S
C333        C334   1.402       .  A
C333        C338   1.401       .  A
C333        H340   1.083       .  S
C334        N544   1.446       .  S
C334        C697   1.409   1_545  A
C335        C696   1.409       .  A
C335        C336   1.402       .  A
C335       Br342   1.914       .  S
C336        C699   1.406       .  A
C336        H341   1.084       .  S
C337        C698   1.406   1_545  A
C337        C338   1.417       .  A
C338       Br339   1.920       .  S
C343        C344   1.401   1_565  A
C343        C348   1.395       .  A
C343        H350   1.084       .  S
C344        C345   1.405       .  A
C344        C548   1.473       .  S
C345        C346   1.397       .  A
C345       Br714   1.917       .  S
C346        C347   1.406       .  A
C346        H351   1.082       .  S
C347        C348   1.414   1_545  A
C348       Br349   1.921       .  S
Br352       C707   1.917       .  S
C353        C716   1.401       .  A
C353        C358   1.396       .  A
C353        H360   1.083       .  S
C354        C715   1.401   1_545  A
C354        C355   1.410       .  A
C355        C356   1.398       .  A
C355       Br362   1.919       .  S
C356        C357   1.401       .  A
C356        H361   1.084       .  S
C357        C720   1.409   1_545  A
C358        C719   1.409       .  A
C358       Br359   1.919       .  S
N363        C367   1.357       .  A
C364        C365   1.382       .  A
C364        C535   1.474       .  S
C365        C366   1.372       .  A
C365        H368   1.082       .  S
C366        H369   1.082       .  S
N370        C374   1.358       .  A
N370        C371   1.357       .  A
N370        C508   1.447       .  S
C371        C372   1.381       .  A
C371        C538   1.473       .  S
C372        C373   1.372       .  A
C372        H375   1.082       .  S
C373        C374   1.383       .  A
C373        H376   1.082       .  S
C374        C495   1.476       .  S
N377        C381   1.352       .  A
N377        C378   1.356       .  A
N377        C465   1.442       .  S
C378        C379   1.384       .  A
C378        C485   1.474       .  S
C379        C380   1.375       .  A
C379        H382   1.082       .  S
C380        C381   1.381       .  A
C380        H383   1.082       .  S
C381        C475   1.469       .  S
N384        C388   1.354       .  A
N384        C385   1.359       .  A
N384        C455   1.444       .  S
C385        C386   1.383       .  A
C385        C488   1.477       .  S
C386        C387   1.373       .  A
C386        H389   1.082       .  S
C387        C388   1.381       .  A
C387        H390   1.082       .  S
C388        C445   1.472       .  S
C391        C428   1.461       .  S
C391        C528   1.478       .  S
N392        N409   1.323   1_545  A
N392       Co429   2.076   1_545  S
C393        N418   1.342       .  A
C393        C431   1.466       .  S
C393        H438   1.081       .  S
H394        C435   1.081       .  S
C395        H424   1.081       .  S
Co396       N414   2.084       .  S
Co396      N1128   2.083   1_455  S
Co396       N617   2.084   1_554  S
Co396      N1317   2.089   1_454  S
Co396     Cl1164   2.449   1_455  S
N397        C435   1.340       .  A
N397        N404   1.319       .  A
N397       Co398   2.082       .  S
Co398       N401   2.096       .  S
Co398       N599   2.095   1_554  S
Co398       N586   2.081       .  S
Co398      Cl440   2.453       .  S
C399        N437   1.352       .  A
C399        C505   1.493       .  S
N400        N407   1.320       .  A
N400        N430   1.328       .  A
N400       Co433   2.095       .  S
N401        N419   1.320       .  A
N401        N437   1.327       .  A
N402        C431   1.353       .  A
N402        N412   1.327       .  A
H403        C428   1.080       .  S
N404        N425   1.323       .  A
N404      Co1120   2.083       .  S
N405        N604   1.318       .  A
N405        N410   1.323       .  A
N405       Co579   2.081       .  S
C406        N410   1.352       .  A
C406        C498   1.477       .  S
N407        C422   1.340       .  A
N407      Co1153   2.091       .  S
C408        N436   1.340       .  A
C408        C411   1.462       .  S
C408        H442   1.080       .  S
C411        C518   1.489       .  S
N412        N418   1.319       .  A
N412      Co1301   2.089       .  S
N413        C439   1.341       .  A
N413        N596   1.319       .  A
N413      Co1334   2.080       .  S
N414        C428   1.339       .  A
N415        N594   1.319       .  A
N415        N624   1.322   1_554  A
N415       Co433   2.082       .  S
H416       C1163   1.081   1_455  S
H417        C434   1.081       .  S
N418       Co579   2.095       .  S
N420        N432   1.327   1_545  A
N420       Co610   2.096   1_545  S
C421        N425   1.350       .  A
C421        C435   1.465       .  S
C421        C478   1.482       .  S
C422        C441   1.462       .  S
C422       H1150   1.081       .  S
N423        N586   1.318       .  A
H426       C1146   1.081   1_455  S
C427        N443   1.348       .  A
C427        C439   1.465       .  S
C427        C448   1.483       .  S
Co429      N1131   2.091   1_455  S
Co429      N1318   2.080   1_455  S
Co429       N601   2.096   1_564  S
Co429      Cl802   2.455   1_465  S
N430        C441   1.355       .  A
C431        C468   1.493       .  S
N436       Co577   2.084       .  S
C439       H1140   1.081       .  S
Cl440     Co1120   2.449       .  S
Cl440      Co791   2.455       .  S
C441        C458   1.489       .  S
N443        N596   1.322       .  A
C444        C445   1.398       .  A
C444        C449   1.396       .  A
C444        H451   1.084       .  S
C445        C446   1.405       .  A
C446        C447   1.398       .  A
C446       Br453   1.915       .  S
C447        C448   1.406       .  A
C447        H452   1.083       .  S
C448        C449   1.417       .  A
C449       Br450   1.922       .  S
C454        C455   1.404       .  A
C454        C459   1.404       .  A
C454        H461   1.083       .  S
C455        C456   1.407       .  A
C456        C457   1.400       .  A
C456       Br463   1.917       .  S
C457        C458   1.408       .  A
C457        H462   1.082       .  S
C458        C459   1.414       .  A
C459       Br460   1.919       .  S
C464       C1189   1.400       .  A
C464        C469   1.402       .  A
C464        H471   1.082   1_655  S
C465       C1188   1.400       .  A
C465        C466   1.404       .  A
C466        C467   1.402       .  A
C466       Br473   1.915       .  S
C467        C468   1.409       .  A
C467        H472   1.082       .  S
C468       C1193   1.417       .  A
C469       C1192   1.417       .  A
C469       Br470   1.920   1_655  S
C474       C1199   1.398       .  A
C474        C479   1.398       .  A
C474        H481   1.082   1_655  S
C475       C1198   1.398       .  A
C475        C476   1.404       .  A
C476        C477   1.396       .  A
C476       Br483   1.919       .  S
C477        C478   1.407       .  A
C477        H482   1.081       .  S
C478       C1203   1.416       .  A
C479       C1202   1.416       .  A
C479       Br480   1.919   1_655  S
C484        C485   1.400       .  A
C484        C489   1.395       .  A
C484       H1215   1.083       .  S
C485        C486   1.411       .  A
C486        C487   1.397       .  A
C486       Br493   1.920       .  S
C487        C488   1.402       .  A
C487        H492   1.083       .  S
C488        C489   1.412       .  A
C489      Br1214   1.920       .  S
Br490      C1213   1.920   1_455  S
H491       C1208   1.083   1_455  S
C494        C495   1.402       .  A
C494        C499   1.401       .  A
C494        H501   1.083       .  S
C495        C496   1.410       .  A
C496        C497   1.393       .  A
C496       Br503   1.922       .  S
C497        C498   1.402       .  A
C497        H502   1.083       .  S
C498        C499   1.413       .  A
C499       Br500   1.920       .  S
C504        C505   1.408       .  A
C504        C509   1.404       .  A
C504        H511   1.083       .  S
C505        C506   1.416       .  A
C506        C507   1.403       .  A
C506       Br513   1.918       .  S
C507        C508   1.402       .  A
C507        H512   1.083       .  S
C508        C509   1.408       .  A
C509       Br510   1.915       .  S
C514        C515   1.402       .  A
C514        C519   1.401       .  A
C514        H521   1.083       .  S
C516        C517   1.402       .  A
C516       Br523   1.914       .  S
C517        H522   1.084       .  S
C518        C519   1.417       .  A
C519       Br520   1.920       .  S
C524        C525   1.401       .  A
C524        C529   1.395       .  A
C524        H531   1.084       .  S
C525        C526   1.405       .  A
C526        C527   1.397       .  A
C527        C528   1.406       .  A
C527        H532   1.082       .  S
C528        C529   1.414       .  A
C529       Br530   1.921       .  S
C534        C539   1.396       .  A
C534        H541   1.083       .  S
C535        C536   1.410       .  A
C536        C537   1.398       .  A
C536       Br543   1.919       .  S
C537        C538   1.401       .  A
C537        H542   1.084       .  S
C539       Br540   1.919       .  S
N544        C548   1.357       .  A
C545        C546   1.382       .  A
C545        C716   1.474       .  S
C546        C547   1.372       .  A
C546        H549   1.082       .  S
C547        H550   1.082       .  S
N551        C555   1.358       .  A
N551        C552   1.357       .  A
N551        C689   1.447       .  S
C552        C553   1.381       .  A
C552        C719   1.473       .  S
C553        C554   1.372       .  A
C553        H556   1.082       .  S
C554        C555   1.383       .  A
C554        H557   1.082       .  S
C555        C676   1.476       .  S
N558        C562   1.352       .  A
N558        C559   1.356       .  A
N558        C646   1.442       .  S
C559        C560   1.384       .  A
C559        C666   1.474       .  S
C560        C561   1.375       .  A
C560        H563   1.082       .  S
C561        C562   1.381       .  A
C561        H564   1.082       .  S
C562        C656   1.469       .  S
N565        C569   1.354       .  A
N565        C566   1.359       .  A
N565        C636   1.444       .  S
C566        C567   1.383       .  A
C566        C669   1.477       .  S
C567        C568   1.373       .  A
C567        H570   1.082       .  S
C568        C569   1.381       .  A
C568        H571   1.082       .  S
C569        C626   1.472       .  S
C572        C609   1.461       .  S
C572        C709   1.478       .  S
N573        N590   1.323   1_545  A
N573       Co610   2.076   1_545  S
C574        N599   1.342       .  A
C574        C612   1.466       .  S
C574        H619   1.081       .  S
H575        C616   1.081       .  S
C576        H605   1.081       .  S
Co577       N595   2.084       .  S
Co577      N1309   2.083   1_455  S
Co577      N1136   2.089   1_455  S
Co577     Cl1345   2.449   1_455  S
N578        C616   1.340       .  A
N578        N585   1.319       .  A
N578       Co579   2.082       .  S
Co579       N582   2.096       .  S
Co579      Cl621   2.453       .  S
C580        N618   1.352       .  A
C580        C686   1.493       .  S
N581        N588   1.320       .  A
N581        N611   1.328       .  A
N581       Co614   2.095       .  S
N582        N600   1.320       .  A
N582        N618   1.327       .  A
N583        C612   1.353       .  A
N583        N593   1.327       .  A
H584        C609   1.080       .  S
N585        N606   1.323       .  A
N585      Co1301   2.083       .  S
N586        N591   1.323   1_554  A
C587        N591   1.352       .  A
C587        C679   1.477       .  S
N588        C603   1.340       .  A
N588      Co1334   2.091       .  S
C589        N617   1.340       .  A
C589        C592   1.462       .  S
C589        H623   1.080       .  S
C592        C699   1.489       .  S
N593        N599   1.319       .  A
N593      Co1120   2.089   1_556  S
N594        C620   1.341   1_554  A
N594      Co1153   2.080       .  S
N595        C609   1.339       .  A
N596       Co614   2.082       .  S
H597       C1344   1.081   1_455  S
H598        C615   1.081   1_554  S
N601        N613   1.327   1_545  A
C602        N606   1.350       .  A
C602        C616   1.465       .  S
C602        C659   1.482       .  S
C603        C622   1.462       .  S
C603       H1331   1.081       .  S
H607       C1327   1.081   1_455  S
C608        N624   1.348       .  A
C608        C620   1.465       .  S
C608        C629   1.483       .  S
Co610      N1312   2.091   1_455  S
Co610      N1137   2.080   1_455  S
Co610      Cl983   2.455   1_465  S
N611        C622   1.355       .  A
C612        C649   1.493       .  S
C620       H1321   1.081       .  S
Cl621     Co1301   2.449       .  S
Cl621      Co972   2.455       .  S
C622        C639   1.489       .  S
C625        C626   1.398       .  A
C625        C630   1.396       .  A
C625        H632   1.084       .  S
C626        C627   1.405       .  A
C627        C628   1.398       .  A
C627       Br634   1.915       .  S
C628        C629   1.406       .  A
C628        H633   1.083       .  S
C629        C630   1.417       .  A
C630       Br631   1.922   1_556  S
C635        C636   1.404       .  A
C635        C640   1.404       .  A
C635        H642   1.083       .  S
C636        C637   1.407       .  A
C637        C638   1.400       .  A
C637       Br644   1.917       .  S
C638        C639   1.408       .  A
C638        H643   1.082       .  S
C639        C640   1.414       .  A
C640       Br641   1.919       .  S
C645       C1370   1.400       .  A
C645        C650   1.402       .  A
C645        H652   1.082   1_655  S
C646       C1369   1.400       .  A
C646        C647   1.404       .  A
C647        C648   1.402       .  A
C647       Br654   1.915       .  S
C648        C649   1.409       .  A
C648        H653   1.082       .  S
C649       C1374   1.417       .  A
C650       C1373   1.417       .  A
C650       Br651   1.920   1_655  S
C655       C1380   1.398       .  A
C655        C660   1.398       .  A
C655        H662   1.082   1_655  S
C656       C1379   1.398       .  A
C656        C657   1.404       .  A
C657        C658   1.396       .  A
C657       Br664   1.919       .  S
C658        C659   1.407       .  A
C658        H663   1.081       .  S
C659       C1384   1.416       .  A
C660       C1383   1.416       .  A
C660       Br661   1.919   1_655  S
C665        C666   1.400       .  A
C665        C670   1.395       .  A
C665       H1396   1.083       .  S
C666        C667   1.411       .  A
C667        C668   1.397       .  A
C667       Br674   1.920       .  S
C668        C669   1.402       .  A
C668        H673   1.083       .  S
C669        C670   1.412       .  A
C670      Br1395   1.920       .  S
Br671      C1394   1.920   1_455  S
H672       C1389   1.083   1_455  S
C675        C676   1.402       .  A
C675        C680   1.401       .  A
C675        H682   1.083       .  S
C676        C677   1.410       .  A
C677        C678   1.393       .  A
C677       Br684   1.922       .  S
C678        C679   1.402       .  A
C678        H683   1.083       .  S
C679        C680   1.413       .  A
C680       Br681   1.920       .  S
C685        C686   1.408       .  A
C685        C690   1.404       .  A
C685        H692   1.083       .  S
C686        C687   1.416       .  A
C687        C688   1.403       .  A
C687       Br694   1.918       .  S
C688        C689   1.402       .  A
C688        H693   1.083       .  S
C689        C690   1.408       .  A
C690       Br691   1.915       .  S
C695        C696   1.402       .  A
C695        C700   1.401       .  A
C695        H702   1.083       .  S
C697        C698   1.402       .  A
C697       Br704   1.914       .  S
C698        H703   1.084       .  S
C699        C700   1.417       .  A
C700       Br701   1.920       .  S
C705        C706   1.401       .  A
C705        C710   1.395       .  A
C705        H712   1.084       .  S
C706        C707   1.405       .  A
C707        C708   1.397       .  A
C708        C709   1.406       .  A
C708        H713   1.082       .  S
C709        C710   1.414       .  A
C710       Br711   1.921       .  S
C715        C720   1.396       .  A
C715        H722   1.083       .  S
C716        C717   1.410       .  A
C717        C718   1.398       .  A
C717       Br724   1.919       .  S
C718        C719   1.401       .  A
C718        H723   1.084       .  S
C720       Br721   1.919       .  S
N725        C729   1.357       .  A
N725       C1088   1.357       .  A
N725       C1239   1.446       .  S
C726       N1087   1.357       .  A
C726        C727   1.382       .  A
C726        C897   1.474       .  S
C727        C728   1.372       .  A
C727        H730   1.082       .  S
C728       C1091   1.382       .  A
C728        H731   1.082       .  S
C729       C1090   1.382       .  A
C729       C1249   1.473       .  S
N732        C736   1.358       .  A
N732        C733   1.357       .  A
N732        C870   1.447       .  S
C733        C734   1.381       .  A
C733        C900   1.473       .  S
C734        C735   1.372       .  A
C734        H737   1.082       .  S
C735        C736   1.383       .  A
C735        H738   1.082       .  S
C736        C857   1.476       .  S
N739        C743   1.352       .  A
N739        C740   1.356       .  A
N739        C827   1.442       .  S
C740        C741   1.384       .  A
C740        C847   1.474       .  S
C741        C742   1.375       .  A
C741        H744   1.082       .  S
C742        C743   1.381       .  A
C742        H745   1.082       .  S
C743        C837   1.469       .  S
N746        C750   1.354       .  A
N746        C747   1.359       .  A
N746        C817   1.444       .  S
C747        C748   1.383       .  A
C747        C850   1.477       .  S
C748        C749   1.373       .  A
C748        H751   1.082       .  S
C749        C750   1.381       .  A
C749        H752   1.082       .  S
C750        C807   1.472       .  S
C753       N1133   1.349   1_545  A
C753        C790   1.461       .  S
C753        C890   1.478       .  S
N754        N771   1.323       .  A
N754       N1138   1.319       .  A
N754       Co791   2.076       .  S
C755        N780   1.342       .  A
C755        C793   1.466       .  S
C755        H800   1.081       .  S
H756        C797   1.081       .  S
C757       N1143   1.344       .  A
C757       C1123   1.467       .  S
C757        H786   1.081       .  S
Co758       N776   2.084       .  S
Co758       N979   2.084   1_554  S
N759        C797   1.340       .  A
N759        N766   1.319       .  A
N759       Co760   2.082       .  S
Co760       N763   2.096       .  S
Co760       N961   2.095   1_554  S
Co760       N948   2.081       .  S
Co760      Cl802   2.453       .  S
C761        N799   1.352       .  A
C761       C1119   1.467   1_545  S
C761        C867   1.493       .  S
N762        N769   1.320       .  A
N762        N792   1.328       .  A
N762       Co795   2.095       .  S
N763        N781   1.320   1_545  A
N763        N799   1.327       .  A
N764        C793   1.353       .  A
N764        N774   1.327       .  A
H765        C790   1.080       .  S
N766        N787   1.323       .  A
N767        N966   1.318   1_545  A
N767        N772   1.323       .  A
N767       Co941   2.081       .  S
C768        N772   1.352       .  A
C768       C1158   1.462   1_545  S
C768        C860   1.477       .  S
N769        C784   1.340       .  A
C770        N798   1.340       .  A
C770        C773   1.462       .  S
C770        H804   1.080       .  S
N771       C1115   1.349       .  A
C773       N1156   1.354   1_545  A
C773        C880   1.489       .  S
N774        N780   1.319       .  A
N775        C801   1.341       .  A
N775        N958   1.319       .  A
N776        C790   1.339       .  A
N776       N1116   1.319       .  A
N777        N956   1.319       .  A
N777        N986   1.322   1_554  A
N777       Co795   2.082       .  S
H779        C796   1.081       .  S
N780       Co941   2.095       .  S
N781       C1119   1.344       .  A
N781      Co1157   2.095       .  S
N782        N794   1.327       .  A
N782       N1160   1.320       .  A
N782       Co972   2.096       .  S
C783        N787   1.350       .  A
C783        C797   1.465       .  S
C783        C840   1.482       .  S
C784        C803   1.462       .  S
N785       C1339   1.340   1_554  A
N785        N948   1.318   1_565  A
N785      Co1157   2.084       .  S
C789        N805   1.348       .  A
C789        C801   1.465       .  S
C789        C810   1.483       .  S
Co791       N963   2.096   1_554  S
N792        C803   1.355       .  A
C793        C830   1.493       .  S
N794       C1135   1.354       .  A
Co795      N1143   2.095       .  S
Co795      N1147   2.084       .  S
Co795     Cl1164   2.452       .  S
C796       N1328   1.340       .  A
C796       C1130   1.462       .  S
N798       N1144   1.320       .  A
N798       Co939   2.084       .  S
Cl802     Co1157   2.452   1_545  S
C803        C820   1.489       .  S
N805        N958   1.322       .  A
C806        C807   1.398       .  A
C806        C811   1.396       .  A
C806        H813   1.084       .  S
C807        C808   1.405       .  A
C808        C809   1.398       .  A
C808       Br815   1.915   1_655  S
C809        C810   1.406       .  A
C809        H814   1.083   1_655  S
C810        C811   1.417       .  A
C811       Br812   1.922       .  S
C816        C817   1.404       .  A
C816        C821   1.404       .  A
C816        H823   1.083       .  S
C817        C818   1.407       .  A
C818        C819   1.400       .  A
C818       Br825   1.917   1_655  S
C819        C820   1.408       .  A
C819        H824   1.082   1_655  S
C820        C821   1.414       .  A
C821       Br822   1.919       .  S
C826        C831   1.402       .  A
C826        H833   1.082       .  S
C827        C828   1.404       .  A
C828        C829   1.402       .  A
C828       Br835   1.915       .  S
C829        C830   1.409       .  A
C829        H834   1.082       .  S
C831       Br832   1.920       .  S
C836        C841   1.398       .  A
C836        H843   1.082       .  S
C837        C838   1.404       .  A
C838        C839   1.396       .  A
C838       Br845   1.919       .  S
C839        C840   1.407       .  A
C839        H844   1.081       .  S
C841       Br842   1.919       .  S
C846        C847   1.400       .  A
C846        C851   1.395       .  A
C847        C848   1.411       .  A
C848        C849   1.397       .  A
C848       Br855   1.920       .  S
C849        C850   1.402       .  A
C849        H854   1.083       .  S
C850        C851   1.412       .  A
C856        C857   1.402   1_565  A
C856        C861   1.401       .  A
C856        H863   1.083       .  S
C857        C858   1.410       .  A
C858        C859   1.393       .  A
C858       Br865   1.922       .  S
C859        C860   1.402       .  A
C859        H864   1.083       .  S
C860        C861   1.413   1_545  A
C861       Br862   1.920       .  S
C866        C867   1.408       .  A
C866        C871   1.404       .  A
C866        H873   1.083       .  S
C867        C868   1.416   1_545  A
C868        C869   1.403       .  A
C868       Br875   1.918       .  S
C869        C870   1.402   1_565  A
C869        H874   1.083       .  S
C870        C871   1.408       .  A
C871       Br872   1.915       .  S
C876        C877   1.402       .  A
C876        C881   1.401       .  A
C876        H883   1.083       .  S
C877       N1087   1.446       .  S
C877       C1240   1.409   1_545  A
C878       C1239   1.409       .  A
C878        C879   1.402       .  A
C878       Br885   1.914       .  S
C879       C1242   1.406       .  A
C879        H884   1.084       .  S
C880       C1241   1.406   1_545  A
C880        C881   1.417       .  A
C881       Br882   1.920       .  S
C886        C887   1.401   1_565  A
C886        C891   1.395       .  A
C886        H893   1.084       .  S
C887        C888   1.405       .  A
C887       C1091   1.473       .  S
C888        C889   1.397       .  A
C888      Br1257   1.917       .  S
C889        C890   1.406       .  A
C889        H894   1.082       .  S
C890        C891   1.414   1_545  A
C891       Br892   1.921       .  S
Br895      C1250   1.917       .  S
C896       C1259   1.401       .  A
C896        C901   1.396       .  A
C896        H903   1.083       .  S
C897       C1258   1.401   1_545  A
C897        C898   1.410       .  A
C898        C899   1.398       .  A
C898       Br905   1.919       .  S
C899        C900   1.401       .  A
C899        H904   1.084       .  S
C900       C1263   1.409   1_545  A
C901       C1262   1.409       .  A
C901       Br902   1.919       .  S
N906        C910   1.357       .  A
N906       C1269   1.357       .  A
N906       C1420   1.446       .  S
C907       N1268   1.357       .  A
C907        C908   1.382       .  A
C907       C1078   1.474       .  S
C908        C909   1.372       .  A
C908        H911   1.082       .  S
C909       C1272   1.382       .  A
C909        H912   1.082       .  S
C910       C1271   1.382       .  A
C910       C1430   1.473       .  S
N913        C917   1.358       .  A
N913        C914   1.357       .  A
N913       C1051   1.447       .  S
C914        C915   1.381       .  A
C914       C1081   1.473       .  S
C915        C916   1.372       .  A
C915        H918   1.082       .  S
C916        C917   1.383       .  A
C916        H919   1.082       .  S
C917       C1038   1.476       .  S
N920        C924   1.352       .  A
N920        C921   1.356       .  A
N920       C1008   1.442       .  S
C921        C922   1.384       .  A
C921       C1028   1.474       .  S
C922        C923   1.375       .  A
C922        H925   1.082       .  S
C923        C924   1.381       .  A
C923        H926   1.082       .  S
C924       C1018   1.469       .  S
N927        C931   1.354       .  A
N927        C928   1.359       .  A
N927        C998   1.444       .  S
C928        C929   1.383       .  A
C928       C1031   1.477       .  S
C929        C930   1.373       .  A
C929        H932   1.082       .  S
C930        C931   1.381       .  A
C930        H933   1.082       .  S
C931        C988   1.472       .  S
C934       N1314   1.349   1_545  A
C934        C971   1.461       .  S
C934       C1071   1.478       .  S
N935        N952   1.323       .  A
N935       N1319   1.319       .  A
N935       Co972   2.076       .  S
C936        N961   1.342       .  A
C936        C974   1.466       .  S
C936        H981   1.081       .  S
H937        C978   1.081       .  S
C938       N1324   1.344       .  A
C938       C1304   1.467       .  S
C938        H967   1.081       .  S
Co939       N957   2.084       .  S
N940        C978   1.340       .  A
N940        N947   1.319       .  A
N940       Co941   2.082       .  S
Co941       N944   2.096       .  S
Co941      Cl983   2.453       .  S
C942        N980   1.352       .  A
C942       C1300   1.467   1_545  S
C942       C1048   1.493       .  S
N943        N950   1.320       .  A
N943        N973   1.328       .  A
N943       Co976   2.095       .  S
N944        N962   1.320   1_545  A
N944        N980   1.327       .  A
N945        C974   1.353       .  A
N945        N955   1.327       .  A
H946        C971   1.080       .  S
N947        N968   1.323       .  A
N948        N953   1.323   1_554  A
C949        N953   1.352       .  A
C949       C1339   1.462   1_545  S
C949       C1041   1.477       .  S
N950        C965   1.340       .  A
C951        N979   1.340       .  A
C951        C954   1.462       .  S
C951        H985   1.080       .  S
N952       C1296   1.349       .  A
C954       N1337   1.354   1_545  A
C954       C1061   1.489       .  S
N955        N961   1.319       .  A
N956        C982   1.341   1_554  A
N957        C971   1.339       .  A
N957       N1297   1.319       .  A
N958       Co976   2.082       .  S
H960        C977   1.081   1_554  S
N962       C1300   1.344       .  A
N962      Co1338   2.095       .  S
N963        N975   1.327       .  A
N963       N1341   1.320       .  A
C964        N968   1.350       .  A
C964        C978   1.465       .  S
C964       C1021   1.482       .  S
C965        C984   1.462       .  S
N966       C1158   1.340       .  A
N966      Co1338   2.084       .  S
C970        N986   1.348       .  A
C970        C982   1.465       .  S
C970        C991   1.483       .  S
N973        C984   1.355       .  A
C974       C1011   1.493       .  S
N975       C1316   1.354       .  A
Co976      N1324   2.095       .  S
Co976      N1328   2.084       .  S
Co976     Cl1345   2.452       .  S
C977       N1147   1.340   1_556  A
C977       C1311   1.462       .  S
N979       N1325   1.320       .  A
Cl983     Co1338   2.452   1_545  S
C984       C1001   1.489       .  S
C987        C988   1.398       .  A
C987        C992   1.396       .  A
C987        H994   1.084       .  S
C988        C989   1.405       .  A
C989        C990   1.398       .  A
C989       Br996   1.915   1_655  S
C990        C991   1.406       .  A
C990        H995   1.083   1_655  S
C991        C992   1.417       .  A
C992       Br993   1.922   1_556  S
C997        C998   1.404       .  A
C997       C1002   1.404       .  A
C997       H1004   1.083       .  S
C998        C999   1.407       .  A
C999       C1000   1.400       .  A
C999      Br1006   1.917   1_655  S
C1000      C1001   1.408       .  A
C1000      H1005   1.082   1_655  S
C1001      C1002   1.414       .  A
C1002     Br1003   1.919       .  S
C1007      C1012   1.402       .  A
C1007      H1014   1.082       .  S
C1008      C1009   1.404       .  A
C1009      C1010   1.402       .  A
C1009     Br1016   1.915       .  S
C1010      C1011   1.409       .  A
C1010      H1015   1.082       .  S
C1012     Br1013   1.920       .  S
C1017      C1022   1.398       .  A
C1017      H1024   1.082       .  S
C1018      C1019   1.404       .  A
C1019      C1020   1.396       .  A
C1019     Br1026   1.919       .  S
C1020      C1021   1.407       .  A
C1020      H1025   1.081       .  S
C1022     Br1023   1.919       .  S
C1027      C1028   1.400       .  A
C1027      C1032   1.395       .  A
C1028      C1029   1.411       .  A
C1029      C1030   1.397       .  A
C1029     Br1036   1.920       .  S
C1030      C1031   1.402       .  A
C1030      H1035   1.083       .  S
C1031      C1032   1.412       .  A
C1037      C1038   1.402   1_565  A
C1037      C1042   1.401       .  A
C1037      H1044   1.083       .  S
C1038      C1039   1.410       .  A
C1039      C1040   1.393       .  A
C1039     Br1046   1.922       .  S
C1040      C1041   1.402       .  A
C1040      H1045   1.083       .  S
C1041      C1042   1.413   1_545  A
C1042     Br1043   1.920       .  S
C1047      C1048   1.408       .  A
C1047      C1052   1.404       .  A
C1047      H1054   1.083       .  S
C1048      C1049   1.416   1_545  A
C1049      C1050   1.403       .  A
C1049     Br1056   1.918       .  S
C1050      C1051   1.402   1_565  A
C1050      H1055   1.083       .  S
C1051      C1052   1.408       .  A
C1052     Br1053   1.915       .  S
C1057      C1058   1.402       .  A
C1057      C1062   1.401       .  A
C1057      H1064   1.083       .  S
C1058      N1268   1.446       .  S
C1058      C1421   1.409   1_545  A
C1059      C1420   1.409       .  A
C1059      C1060   1.402       .  A
C1059     Br1066   1.914       .  S
C1060      C1423   1.406       .  A
C1060      H1065   1.084       .  S
C1061      C1422   1.406   1_545  A
C1061      C1062   1.417       .  A
C1062     Br1063   1.920       .  S
C1067      C1068   1.401   1_565  A
C1067      C1072   1.395       .  A
C1067      H1074   1.084       .  S
C1068      C1069   1.405       .  A
C1068      C1272   1.473       .  S
C1069      C1070   1.397       .  A
C1069     Br1438   1.917       .  S
C1070      C1071   1.406       .  A
C1070      H1075   1.082       .  S
C1071      C1072   1.414   1_545  A
C1072     Br1073   1.921       .  S
Br1076     C1431   1.917       .  S
C1077      C1440   1.401       .  A
C1077      C1082   1.396       .  A
C1077      H1084   1.083       .  S
C1078      C1439   1.401   1_545  A
C1078      C1079   1.410       .  A
C1079      C1080   1.398       .  A
C1079     Br1086   1.919       .  S
C1080      C1081   1.401       .  A
C1080      H1085   1.084       .  S
C1081      C1444   1.409   1_545  A
C1082      C1443   1.409       .  A
C1082     Br1083   1.919       .  S
N1087      C1091   1.357       .  A
C1088      C1089   1.382       .  A
C1088      C1259   1.474       .  S
C1089      C1090   1.372       .  A
C1089      H1092   1.082       .  S
C1090      H1093   1.082       .  S
N1094      C1098   1.358       .  A
N1094      C1095   1.357       .  A
N1094      C1232   1.447       .  S
C1095      C1096   1.381       .  A
C1095      C1262   1.473       .  S
C1096      C1097   1.372       .  A
C1096      H1099   1.082       .  S
C1097      C1098   1.383       .  A
C1097      H1100   1.082       .  S
C1098      C1219   1.476       .  S
N1101      C1105   1.352       .  A
N1101      C1102   1.356       .  A
N1101      C1189   1.442       .  S
C1102      C1103   1.384       .  A
C1102      C1209   1.474       .  S
C1103      C1104   1.375       .  A
C1103      H1106   1.082       .  S
C1104      C1105   1.381       .  A
C1104      H1107   1.082       .  S
C1105      C1199   1.469       .  S
N1108      C1112   1.354       .  A
N1108      C1109   1.359       .  A
N1108      C1179   1.444       .  S
C1109      C1110   1.383       .  A
C1109      C1212   1.477       .  S
C1110      C1111   1.373       .  A
C1110      H1113   1.082       .  S
C1111      C1112   1.381       .  A
C1111      H1114   1.082       .  S
C1112      C1169   1.472       .  S
C1115      C1152   1.461       .  S
C1115      C1252   1.478       .  S
N1116      N1133   1.323   1_545  A
N1116     Co1153   2.076   1_545  S
C1117      N1142   1.342       .  A
C1117      C1155   1.466       .  S
C1117      H1162   1.081       .  S
H1118      C1159   1.081       .  S
C1119      H1148   1.081       .  S
Co1120     N1138   2.084       .  S
Co1120     N1341   2.084   1_554  S
N1121      C1159   1.340       .  A
N1121      N1128   1.319       .  A
N1121     Co1122   2.082       .  S
Co1122     N1125   2.096       .  S
Co1122     N1323   2.095   1_554  S
Co1122     N1310   2.081       .  S
Co1122    Cl1164   2.453       .  S
C1123      N1161   1.352       .  A
C1123      C1229   1.493       .  S
N1124      N1131   1.320       .  A
N1124      N1154   1.328       .  A
N1124     Co1157   2.095       .  S
N1125      N1143   1.320       .  A
N1125      N1161   1.327       .  A
N1126      C1155   1.353       .  A
N1126      N1136   1.327       .  A
H1127      C1152   1.080       .  S
N1128      N1149   1.323       .  A
N1129      N1328   1.318       .  A
N1129      N1134   1.323       .  A
N1129     Co1303   2.081       .  S
C1130      N1134   1.352       .  A
C1130      C1222   1.477       .  S
N1131      C1146   1.340       .  A
C1132      N1160   1.340       .  A
C1132      C1135   1.462       .  S
C1132      H1166   1.080       .  S
C1135      C1242   1.489       .  S
N1136      N1142   1.319       .  A
N1137      C1163   1.341       .  A
N1137      N1320   1.319       .  A
N1138      C1152   1.339       .  A
N1139      N1318   1.319       .  A
N1139      N1348   1.322   1_554  A
N1139     Co1157   2.082       .  S
H1141      C1158   1.081       .  S
N1142     Co1303   2.095       .  S
N1144      N1156   1.327   1_545  A
N1144     Co1334   2.096   1_545  S
C1145      N1149   1.350       .  A
C1145      C1159   1.465       .  S
C1145      C1202   1.482       .  S
C1146      C1165   1.462       .  S
N1147      N1310   1.318       .  A
C1151      N1167   1.348       .  A
C1151      C1163   1.465       .  S
C1151      C1172   1.483       .  S
Co1153     N1325   2.096   1_564  S
N1154      C1165   1.355       .  A
C1155      C1192   1.493       .  S
N1160     Co1301   2.084       .  S
C1165      C1182   1.489       .  S
N1167      N1320   1.322       .  A
C1168      C1169   1.398       .  A
C1168      C1173   1.396       .  A
C1168      H1175   1.084       .  S
C1169      C1170   1.405       .  A
C1170      C1171   1.398       .  A
C1170     Br1177   1.915   1_655  S
C1171      C1172   1.406       .  A
C1171      H1176   1.083   1_655  S
C1172      C1173   1.417       .  A
C1173     Br1174   1.922       .  S
C1178      C1179   1.404       .  A
C1178      C1183   1.404       .  A
C1178      H1185   1.083       .  S
C1179      C1180   1.407       .  A
C1180      C1181   1.400       .  A
C1180     Br1187   1.917   1_655  S
C1181      C1182   1.408       .  A
C1181      H1186   1.082   1_655  S
C1182      C1183   1.414       .  A
C1183     Br1184   1.919       .  S
C1188      C1193   1.402       .  A
C1188      H1195   1.082       .  S
C1189      C1190   1.404       .  A
C1190      C1191   1.402       .  A
C1190     Br1197   1.915       .  S
C1191      C1192   1.409       .  A
C1191      H1196   1.082       .  S
C1193     Br1194   1.920       .  S
C1198      C1203   1.398       .  A
C1198      H1205   1.082       .  S
C1199      C1200   1.404       .  A
C1200      C1201   1.396       .  A
C1200     Br1207   1.919       .  S
C1201      C1202   1.407       .  A
C1201      H1206   1.081       .  S
C1203     Br1204   1.919       .  S
C1208      C1209   1.400       .  A
C1208      C1213   1.395       .  A
C1209      C1210   1.411       .  A
C1210      C1211   1.397       .  A
C1210     Br1217   1.920       .  S
C1211      C1212   1.402       .  A
C1211      H1216   1.083       .  S
C1212      C1213   1.412       .  A
C1218      C1219   1.402       .  A
C1218      C1223   1.401       .  A
C1218      H1225   1.083       .  S
C1219      C1220   1.410       .  A
C1220      C1221   1.393       .  A
C1220     Br1227   1.922       .  S
C1221      C1222   1.402       .  A
C1221      H1226   1.083       .  S
C1222      C1223   1.413       .  A
C1223     Br1224   1.920       .  S
C1228      C1229   1.408       .  A
C1228      C1233   1.404       .  A
C1228      H1235   1.083       .  S
C1229      C1230   1.416       .  A
C1230      C1231   1.403       .  A
C1230     Br1237   1.918       .  S
C1231      C1232   1.402       .  A
C1231      H1236   1.083       .  S
C1232      C1233   1.408       .  A
C1233     Br1234   1.915       .  S
C1238      C1239   1.402       .  A
C1238      C1243   1.401       .  A
C1238      H1245   1.083       .  S
C1240      C1241   1.402       .  A
C1240     Br1247   1.914       .  S
C1241      H1246   1.084       .  S
C1242      C1243   1.417       .  A
C1243     Br1244   1.920       .  S
C1248      C1249   1.401       .  A
C1248      C1253   1.395       .  A
C1248      H1255   1.084       .  S
C1249      C1250   1.405       .  A
C1250      C1251   1.397       .  A
C1251      C1252   1.406       .  A
C1251      H1256   1.082       .  S
C1252      C1253   1.414       .  A
C1253     Br1254   1.921       .  S
C1258      C1263   1.396       .  A
C1258      H1265   1.083       .  S
C1259      C1260   1.410       .  A
C1260      C1261   1.398       .  A
C1260     Br1267   1.919       .  S
C1261      C1262   1.401       .  A
C1261      H1266   1.084       .  S
C1263     Br1264   1.919       .  S
N1268      C1272   1.357       .  A
C1269      C1270   1.382       .  A
C1269      C1440   1.474       .  S
C1270      C1271   1.372       .  A
C1270      H1273   1.082       .  S
C1271      H1274   1.082       .  S
N1275      C1279   1.358       .  A
N1275      C1276   1.357       .  A
N1275      C1413   1.447       .  S
C1276      C1277   1.381       .  A
C1276      C1443   1.473       .  S
C1277      C1278   1.372       .  A
C1277      H1280   1.082       .  S
C1278      C1279   1.383       .  A
C1278      H1281   1.082       .  S
C1279      C1400   1.476       .  S
N1282      C1286   1.352       .  A
N1282      C1283   1.356       .  A
N1282      C1370   1.442       .  S
C1283      C1284   1.384       .  A
C1283      C1390   1.474       .  S
C1284      C1285   1.375       .  A
C1284      H1287   1.082       .  S
C1285      C1286   1.381       .  A
C1285      H1288   1.082       .  S
C1286      C1380   1.469       .  S
N1289      C1293   1.354       .  A
N1289      C1290   1.359       .  A
N1289      C1360   1.444       .  S
C1290      C1291   1.383       .  A
C1290      C1393   1.477       .  S
C1291      C1292   1.373       .  A
C1291      H1294   1.082       .  S
C1292      C1293   1.381       .  A
C1292      H1295   1.082       .  S
C1293      C1350   1.472       .  S
C1296      C1333   1.461       .  S
C1296      C1433   1.478       .  S
N1297      N1314   1.323   1_545  A
N1297     Co1334   2.076   1_545  S
C1298      N1323   1.342       .  A
C1298      C1336   1.466       .  S
C1298      H1343   1.081       .  S
H1299      C1340   1.081       .  S
C1300      H1329   1.081       .  S
Co1301     N1319   2.084       .  S
N1302      C1340   1.340       .  A
N1302      N1309   1.319       .  A
N1302     Co1303   2.082       .  S
Co1303     N1306   2.096       .  S
Co1303    Cl1345   2.453       .  S
C1304      N1342   1.352       .  A
C1304      C1410   1.493       .  S
N1305      N1312   1.320       .  A
N1305      N1335   1.328       .  A
N1305     Co1338   2.095       .  S
N1306      N1324   1.320       .  A
N1306      N1342   1.327       .  A
N1307      C1336   1.353       .  A
N1307      N1317   1.327       .  A
H1308      C1333   1.080       .  S
N1309      N1330   1.323       .  A
N1310      N1315   1.323   1_554  A
C1311      N1315   1.352       .  A
C1311      C1403   1.477       .  S
N1312      C1327   1.340       .  A
C1313      N1341   1.340       .  A
C1313      C1316   1.462       .  S
C1313      H1347   1.080       .  S
C1316      C1423   1.489       .  S
N1317      N1323   1.319       .  A
N1318      C1344   1.341   1_554  A
N1319      C1333   1.339       .  A
N1320     Co1338   2.082       .  S
H1322      C1339   1.081   1_554  S
N1325      N1337   1.327   1_545  A
C1326      N1330   1.350       .  A
C1326      C1340   1.465       .  S
C1326      C1383   1.482       .  S
C1327      C1346   1.462       .  S
C1332      N1348   1.348       .  A
C1332      C1344   1.465       .  S
C1332      C1353   1.483       .  S
N1335      C1346   1.355       .  A
C1336      C1373   1.493       .  S
C1346      C1363   1.489       .  S
C1349      C1350   1.398       .  A
C1349      C1354   1.396       .  A
C1349      H1356   1.084       .  S
C1350      C1351   1.405       .  A
C1351      C1352   1.398       .  A
C1351     Br1358   1.915   1_655  S
C1352      C1353   1.406       .  A
C1352      H1357   1.083   1_655  S
C1353      C1354   1.417       .  A
C1354     Br1355   1.922   1_556  S
C1359      C1360   1.404       .  A
C1359      C1364   1.404       .  A
C1359      H1366   1.083       .  S
C1360      C1361   1.407       .  A
C1361      C1362   1.400       .  A
C1361     Br1368   1.917   1_655  S
C1362      C1363   1.408       .  A
C1362      H1367   1.082   1_655  S
C1363      C1364   1.414       .  A
C1364     Br1365   1.919       .  S
C1369      C1374   1.402       .  A
C1369      H1376   1.082       .  S
C1370      C1371   1.404       .  A
C1371      C1372   1.402       .  A
C1371     Br1378   1.915       .  S
C1372      C1373   1.409       .  A
C1372      H1377   1.082       .  S
C1374     Br1375   1.920       .  S
C1379      C1384   1.398       .  A
C1379      H1386   1.082       .  S
C1380      C1381   1.404       .  A
C1381      C1382   1.396       .  A
C1381     Br1388   1.919       .  S
C1382      C1383   1.407       .  A
C1382      H1387   1.081       .  S
C1384     Br1385   1.919       .  S
C1389      C1390   1.400       .  A
C1389      C1394   1.395       .  A
C1390      C1391   1.411       .  A
C1391      C1392   1.397       .  A
C1391     Br1398   1.920       .  S
C1392      C1393   1.402       .  A
C1392      H1397   1.083       .  S
C1393      C1394   1.412       .  A
C1399      C1400   1.402       .  A
C1399      C1404   1.401       .  A
C1399      H1406   1.083       .  S
C1400      C1401   1.410       .  A
C1401      C1402   1.393       .  A
C1401     Br1408   1.922       .  S
C1402      C1403   1.402       .  A
C1402      H1407   1.083       .  S
C1403      C1404   1.413       .  A
C1404     Br1405   1.920       .  S
C1409      C1410   1.408       .  A
C1409      C1414   1.404       .  A
C1409      H1416   1.083       .  S
C1410      C1411   1.416       .  A
C1411      C1412   1.403       .  A
C1411     Br1418   1.918       .  S
C1412      C1413   1.402       .  A
C1412      H1417   1.083       .  S
C1413      C1414   1.408       .  A
C1414     Br1415   1.915       .  S
C1419      C1420   1.402       .  A
C1419      C1424   1.401       .  A
C1419      H1426   1.083       .  S
C1421      C1422   1.402       .  A
C1421     Br1428   1.914       .  S
C1422      H1427   1.084       .  S
C1423      C1424   1.417       .  A
C1424     Br1425   1.920       .  S
C1429      C1430   1.401       .  A
C1429      C1434   1.395       .  A
C1429      H1436   1.084       .  S
C1430      C1431   1.405       .  A
C1431      C1432   1.397       .  A
C1432      C1433   1.406       .  A
C1432      H1437   1.082       .  S
C1433      C1434   1.414       .  A
C1434     Br1435   1.921       .  S
C1439      C1444   1.396       .  A
C1439      H1446   1.083       .  S
C1440      C1441   1.410       .  A
C1441      C1442   1.398       .  A
C1441     Br1448   1.919       .  S
C1442      C1443   1.401       .  A
C1442      H1447   1.084       .  S
C1444     Br1445   1.919       .  S
