geometry optimzed in LAMMPS
_audit_creation_date              2020-11-30 
_audit_creation_method            'lammps2cif' 
_symmetry_space_group_name_H-M    'P1' 
_symmetry_Int_Tables_number       1 
_symmetry_cell_setting            triclinic 
loop_ 
_symmetry_equiv_pos_as_xyz 
  x,y,z 
_cell_length_a                    29.71860819 
_cell_length_b                    29.54639641713098 
_cell_length_c                    97.84448895319753 
_cell_angle_alpha                 90.17552819315632 
_cell_angle_beta                  89.66934859875059 
_cell_angle_gamma                 90.06543256096836 
loop_ 
_atom_site_label 
_atom_site_type_symbol 
_atom_site_fract_x 
_atom_site_fract_y 
_atom_site_fract_z 
_atom_site_charge 
N1          N  0.01833930  0.96584615  0.06930527    -0.36600
N2          N  0.47628848  0.40030421  0.08913059    -0.57200
N3          N  0.54610274  0.39387831  0.10928726    -0.36600
N4          N  0.11266846  0.48047828  0.08942345    -0.57200
C5          C  0.48137860  0.94937147  0.06089495     0.27000
C6          C  0.05547684  0.95697766  0.06169928     0.27000
C7          C  0.50916943  0.38215674  0.11648826     0.27000
C8          C  0.07786891  0.47099527  0.11765347     0.27000
C9          C  0.42371631  0.97337083  0.07796129     0.35600
C10         C  0.45175253  0.40940632  0.10045322     0.35600
C11         C  0.11405110  0.96730076  0.07960974     0.35600
C12         C  0.13857905  0.48540134  0.10062854     0.35600
C13         C  0.49323624  0.93158928  0.04823452    -0.21900
C14         C  0.04272252  0.94404002  0.04862053    -0.21900
C15         C  0.52166293  0.36189318  0.12865465    -0.21900
C16         C  0.06352891  0.45617565  0.13040647    -0.21900
C17         C  0.38295597  0.99227091  0.08193099    -0.23000
C18         C  0.41094817  0.42853826  0.09689768    -0.22900
C19         C  0.15628009  0.98033368  0.08415829    -0.23000
C20         C  0.18248805  0.49514510  0.09683057    -0.22900
C21         C  0.43775222  0.96477874  0.06439881    -0.18300
C22         C  0.10064081  0.96348556  0.06583498    -0.18300
C23         C  0.12316917  0.47929836  0.11417455    -0.18300
C24         C  0.46598161  0.39899695  0.11380957    -0.18300
H25         H  0.47150266  0.92535111  0.03959045     0.14600
H26         H  0.06424010  0.93556646  0.04003551     0.14600
H27         H  0.49980652  0.35116203  0.13691379     0.14600
H28         H  0.08407382  0.44592475  0.13895511     0.14600
H29         H  0.35645797  0.00443552  0.07535405     0.12900
H30         H  0.38401564  0.43883978  0.10371597     0.12900
H31         H  0.18488624  0.99032643  0.07796555     0.12900
H32         H  0.21094817  0.50049793  0.10349733     0.12900
H33         H  0.01788385  0.98119710  0.07886815     0.26200
H34         H  0.54665217  0.41696839  0.10128003     0.26200
O35         O  0.24663604  0.43104616  0.98150168    -0.72900
O36         O  0.33675870  0.40584674  0.01083845    -0.73900
O37         O  0.24466471  0.42508643  0.01084779    -0.62500
O38         O  0.33834509  0.41148684  0.98173184    -0.71000
O39         O  0.31253309  0.99257950  0.98088894    -0.70500
O40         O  0.22006640  0.99333462  0.01110437    -0.61800
O41         O  0.31373464  0.99592191  0.01065270    -0.74300
O42         O  0.21884105  0.99083280  0.98162752    -0.73100
Cu43       Cu  0.29106618  0.41597999  0.99617869     1.04600
Cu44       Cu  0.26630093  0.99578323  0.99604318     1.04300
C45         C  0.20705609  0.95259293  0.97666953     0.93300
C46         C  0.32683091  0.95924843  0.01626716     0.92400
C47         C  0.20807023  0.95596638  0.01661271     0.84500
C48         C  0.32637278  0.95478450  0.97605762     0.90800
N49         N  0.23097758  0.46979964  0.18885534    -0.36600
N50         N  0.29674325  0.44379946  0.20988317    -0.57200
N51         N  0.36751474  0.44745655  0.18900300    -0.36600
N52         N  0.30237455  0.47439491  0.16895849    -0.57200
C53         C  0.20348075  0.45439395  0.19887094     0.27000
C54         C  0.20759491  0.46792675  0.17696581     0.27000
C55         C  0.39248948  0.43276108  0.19961040     0.27000
C56         C  0.39117073  0.43948086  0.17729677     0.27000
C57         C  0.25932606  0.44933500  0.21791002     0.35600
C58         C  0.33358800  0.44151610  0.21816258     0.35600
C59         C  0.26901593  0.49196073  0.16150932     0.35600
C60         C  0.33957571  0.47709665  0.16119509     0.35600
C61         C  0.16195802  0.44334468  0.19328556    -0.21900
C62         C  0.16467033  0.45174351  0.17947347    -0.21900
C63         C  0.43361320  0.41741865  0.19447097    -0.21900
C64         C  0.43204040  0.42027977  0.18046047    -0.21900
C65         C  0.27244055  0.44916680  0.23148499    -0.23000
C66         C  0.31900825  0.44432598  0.23164585    -0.22900
C67         C  0.28556268  0.50847931  0.14920647    -0.23000
C68         C  0.33037739  0.49848667  0.14893549    -0.22900
C69         C  0.21364813  0.45318249  0.21304591    -0.18300
C70         C  0.22385276  0.48149556  0.16397630    -0.18300
C71         C  0.37868106  0.45266043  0.16393926    -0.18300
C72         C  0.37981268  0.43514163  0.21373089    -0.18300
H73         H  0.13260431  0.43053270  0.19861602     0.14600
H74         H  0.13798836  0.44682133  0.17213300     0.14600
H75         H  0.46264117  0.40572985  0.19997635     0.14600
H76         H  0.45901824  0.41158414  0.17345466     0.14600
H77         H  0.25074050  0.45218706  0.24036088     0.12900
H78         H  0.33973370  0.44270124  0.24068964     0.12900
H79         H  0.26659462  0.52210218  0.14075433     0.12900
H80         H  0.35269668  0.50358306  0.14030699     0.12900
H81         H  0.26213192  0.48490348  0.19035188     0.26200
H82         H  0.33803650  0.46566600  0.18995746     0.26200
N83         N  0.51655528  0.93162817  0.92330849    -0.36600
N84         N  0.47667125  0.40680575  0.90373509    -0.57200
N85         N  0.54732519  0.40768103  0.88384732    -0.36600
N86         N  0.11518576  0.48679629  0.90538949    -0.57200
C87         C  0.47888544  0.92519067  0.93090768     0.27000
C88         C  0.05495173  0.93868532  0.93046289     0.27000
C89         C  0.51219975  0.39247884  0.87651865     0.27000
C90         C  0.08157025  0.46721617  0.87790883     0.27000
C91         C  0.42236186  0.94580878  0.91343045     0.35600
C92         C  0.45250559  0.41594696  0.89244271     0.35600
C93         C  0.11446842  0.96265762  0.91429439     0.35600
C94         C  0.14005479  0.49342216  0.89399998     0.35600
C95         C  0.49066246  0.90966280  0.94376602    -0.21900
C96         C  0.04117418  0.91800138  0.94248837    -0.21900
C97         C  0.52738933  0.37440328  0.86422751    -0.21900
C98         C  0.06884858  0.44498564  0.86602438    -0.21900
C99         C  0.38276879  0.96571060  0.90902830    -0.23000
C100        C  0.41145999  0.43476879  0.89606287    -0.22900
C101        C  0.15576205  0.98111940  0.91071274    -0.23000
C102        C  0.18222627  0.50987490  0.89739675    -0.22900
C103        C  0.43481061  0.93810135  0.92710725    -0.18300
C104        C  0.09939006  0.95278268  0.92766527    -0.18300
C105        C  0.12554373  0.48189504  0.88075116    -0.18300
C106        C  0.46771760  0.40611285  0.87907485    -0.18300
H107        H  0.46841479  0.90248694  0.95228397     0.14600
H108        H  0.06215048  0.90658383  0.95079801     0.14600
H109        H  0.50710995  0.36220261  0.85582893     0.14600
H110        H  0.09053095  0.43196135  0.85800820     0.14600
H111        H  0.35610599  0.97967655  0.91532627     0.12900
H112        H  0.38478943  0.44514995  0.88927406     0.12900
H113        H  0.18233043  0.99172756  0.91753395     0.12900
H114        H  0.20969588  0.51779745  0.89049506     0.12900
H115        H  0.51824194  0.94873942  0.91405951     0.26200
H116        H  0.54507536  0.43035147  0.89196686     0.26200
N117        N  0.36861362  0.45327894  0.80411894    -0.36600
N118        N  0.30492648  0.47536038  0.82498429    -0.57200
N119        N  0.23181065  0.47135606  0.80579162    -0.36600
N120        N  0.29604339  0.44865136  0.78399508    -0.57200
C121        C  0.39188288  0.44106527  0.81540860     0.27000
C122        C  0.39005888  0.43557831  0.79319501     0.27000
C123        C  0.20918277  0.47057300  0.81789004     0.27000
C124        C  0.20312487  0.45723364  0.79596208     0.27000
C125        C  0.34322269  0.48021157  0.83203767     0.35600
C126        C  0.27227130  0.49342914  0.83275789     0.35600
C127        C  0.33224151  0.44969352  0.77537087     0.35600
C128        C  0.25815759  0.45414128  0.77639388     0.35600
C129        C  0.42885202  0.41540833  0.81158926    -0.21900
C130        C  0.42817245  0.41259634  0.79751016    -0.21900
C131        C  0.16540422  0.45649813  0.81574142    -0.21900
C132        C  0.16133338  0.44870586  0.80192136    -0.21900
C133        C  0.33522987  0.50288530  0.84423857    -0.23000
C134        C  0.29005455  0.51157121  0.84465851    -0.22900
C135        C  0.31711166  0.45480978  0.76208724    -0.23000
C136        C  0.27040739  0.45712160  0.76271605    -0.22900
C137        C  0.38219345  0.45581447  0.82886762    -0.18300
C138        C  0.37827254  0.44369984  0.77944011    -0.18300
C139        C  0.21285207  0.45476068  0.78169367    -0.18300
C140        C  0.22673300  0.48380027  0.83072794    -0.18300
H141        H  0.45446602  0.40164636  0.81820236     0.14600
H142        H  0.45301170  0.39568712  0.79118956     0.14600
H143        H  0.13890981  0.45298550  0.82330377     0.14600
H144        H  0.13072742  0.43812217  0.79692224     0.14600
H145        H  0.35875471  0.50981338  0.85237646     0.12900
H146        H  0.27189402  0.52620907  0.85321245     0.12900
H147        H  0.33751192  0.45589947  0.75289393     0.12900
H148        H  0.24804830  0.46074620  0.75409527     0.12900
H149        H  0.34269103  0.47688963  0.80355589     0.26200
H150        H  0.26364306  0.48491722  0.80410679     0.26200
N151        N  0.99751402  0.14389502  0.68719733    -0.36600
N152        N  0.53085749  0.20420574  0.70537682    -0.57200
N153        N  0.03501585  0.27761229  0.68912862    -0.36600
N154        N  0.00498238  0.21657162  0.66798160    -0.57200
C155        C  0.00999874  0.11360181  0.69683710     0.27000
C156        C  0.99288403  0.12112124  0.67517031     0.27000
C157        C  0.05399121  0.29753992  0.70008312     0.27000
C158        C  0.05113550  0.29889914  0.67789111     0.27000
C159        C  0.52286562  0.16629127  0.71289571     0.35600
C160        C  0.53413524  0.24001962  0.71414221     0.35600
C161        C  0.98232559  0.18722441  0.66004619     0.35600
C162        C  0.00799439  0.25527957  0.66083406     0.35600
C163        C  0.01193810  0.07083288  0.69083973    -0.21900
C164        C  0.00137011  0.07568474  0.67723120    -0.21900
C165        C  0.08194795  0.33245604  0.69580837    -0.21900
C166        C  0.08075015  0.33275964  0.68174896    -0.21900
C167        C  0.52276408  0.17797557  0.72664174    -0.23000
C168        C  0.52906475  0.22450636  0.72741392    -0.22900
C169        C  0.96968286  0.20782323  0.64793823    -0.23000
C170        C  0.98637898  0.25093368  0.64839330    -0.22900
C171        C  0.51609063  0.12141872  0.70749544    -0.18300
C172        C  0.98118168  0.14038948  0.66238405    -0.18300
C173        C  0.03645289  0.29123049  0.66440554    -0.18300
C174        C  0.54494572  0.28567313  0.71026030    -0.18300
H175        H  0.01986630  0.03901830  0.69568294     0.14600
H176        H  0.00029590  0.04881308  0.66969619     0.14600
H177        H  0.10117119  0.35543240  0.70212111     0.14600
H178        H  0.09823855  0.35636577  0.67515142     0.14600
H179        H  0.51798331  0.15543023  0.73522537     0.12900
H180        H  0.53097161  0.24442496  0.73669404     0.12900
H181        H  0.95293420  0.19249230  0.63928640     0.12900
H182        H  0.98470319  0.27545838  0.64022406     0.12900
H183        H  0.98874241  0.17746264  0.68901451     0.26200
H184        H  0.00840061  0.25470484  0.68953984     0.26200
N185        N  0.08343007  0.45675349  0.60849547    -0.36600
N186        N  0.08934393  0.38160119  0.58978384    -0.57200
N187        N  0.06357644  0.44773356  0.56915789    -0.36600
N188        N  0.05920054  0.52179066  0.58844365    -0.57200
C189        C  0.10334815  0.42445754  0.61599779     0.27000
C190        C  0.08730790  0.49584844  0.61547355     0.27000
C191        C  0.07608968  0.41162371  0.56154050     0.27000
C192        C  0.06271334  0.48389756  0.56074083     0.27000
C193        C  0.08357709  0.35918646  0.60169465     0.35600
C194        C  0.07488858  0.35380320  0.57975409     0.35600
C195        C  0.94170632  0.04909528  0.59996689     0.35600
C196        C  0.94064410  0.04685970  0.57778361     0.35600
C197        C  0.12211396  0.44361719  0.62760828    -0.21900
C198        C  0.11180826  0.48891130  0.62729893    -0.21900
C199        C  0.08402127  0.42506161  0.54818084    -0.21900
C200        C  0.07576943  0.47073996  0.54768109    -0.21900
C201        C  0.06680521  0.31620597  0.59920452    -0.23000
C202        C  0.06174530  0.31260218  0.58520869    -0.22900
C203        C  0.93731603  0.09340665  0.59562538    -0.23000
C204        C  0.93674702  0.09202068  0.58154459    -0.22900
C205        C  0.09266554  0.37839192  0.61464210    -0.18300
C206        C  0.94808605  0.03543828  0.61365666    -0.18300
C207        C  0.94594247  0.03086818  0.56420620    -0.18300
C208        C  0.07276678  0.36622207  0.56584292    -0.18300
H209        H  0.13739774  0.42592682  0.63606686     0.14600
H210        H  0.11812105  0.51311240  0.63539535     0.14600
H211        H  0.09275917  0.40376214  0.53954996     0.14600
H212        H  0.07713737  0.49140694  0.53857407     0.14600
H213        H  0.05838334  0.29057886  0.60667377     0.12900
H214        H  0.04835554  0.28374727  0.57973235     0.12900
H215        H  0.93617120  0.12357771  0.60192004     0.12900
H216        H  0.93497198  0.12101227  0.57483387     0.12900
H217        H  0.05940142  0.45054217  0.60102816     0.26200
H218        H  0.04908488  0.44611252  0.57882522     0.26200
O219        O  0.99730283  0.25942608  0.48423692    -0.72900
O220        O  0.96017673  0.16744541  0.51221373    -0.73900
O221        O  0.99709877  0.25443906  0.51364603    -0.62500
O222        O  0.96160617  0.17140672  0.48266864    -0.71000
O223        O  0.03100682  0.14400503  0.48261883    -0.70500
O224        O  0.06607260  0.22670940  0.51327117    -0.61800
O225        O  0.02938132  0.13966127  0.51201613    -0.74300
O226        O  0.06654283  0.23203804  0.48393660    -0.73100
Cu227      Cu  0.97663625  0.21413231  0.49818504     1.04600
Cu228      Cu  0.05054430  0.18453328  0.49792577     1.04300
C229        C  0.03723567  0.25974270  0.47935430     0.93300
C230        C  0.98975894  0.14093741  0.51717697     0.92400
C231        C  0.03668137  0.25254441  0.51873720     0.84500
C232        C  0.99183986  0.14595071  0.47735510     0.90800
C233        C  0.04499039  0.45628844  0.74786342    -0.02500
N234        N  0.07843763  0.44983943  0.42621620    -0.36600
N235        N  0.08524817  0.37546264  0.40694940    -0.57200
N236        N  0.08753877  0.44521256  0.38654203    -0.36600
N237        N  0.08278207  0.51929164  0.40556582    -0.57200
C238        C  0.09045545  0.41465005  0.43419536     0.27000
C239        C  0.08625444  0.48805153  0.43345838     0.27000
C240        C  0.09666981  0.40733950  0.37933238     0.27000
C241        C  0.10009491  0.48060255  0.37871260     0.29800
C242        C  0.07194570  0.35283104  0.41821870     0.35600
C243        C  0.07172494  0.35086435  0.39607560     0.35600
C244        C  0.95258341  0.04609531  0.41681328     0.35600
C245        C  0.95353915  0.04569439  0.39466572     0.35600
C246        C  0.10761259  0.43072855  0.44642806    -0.21900
C247        C  0.10473334  0.47719045  0.44598663    -0.21900
C248        C  0.11679699  0.41853626  0.36699350    -0.21900
C249        C  0.11942344  0.46492126  0.36666028    -0.21900
C250        C  0.05138493  0.31248487  0.41453248    -0.23000
C251        C  0.05097872  0.31137770  0.40039691    -0.22900
C252        C  0.94322134  0.08996616  0.41269700    -0.23000
C253        C  0.94353601  0.08963449  0.39858608    -0.22900
C254        C  0.07855084  0.36915225  0.43164487    -0.18300
C255        C  0.95851335  0.03171589  0.43044099    -0.18300
C256        C  0.96175399  0.03068438  0.38119899    -0.18300
C257        C  0.07796193  0.36491529  0.38243146    -0.18300
H258        H  0.11854559  0.41088391  0.45507392     0.14600
H259        H  0.11307640  0.50027561  0.45420038     0.14600
H260        H  0.12577875  0.39588644  0.35871112     0.14600
H261        H  0.13049322  0.48491517  0.35801702     0.14600
H262        H  0.03724422  0.28720970  0.42129351     0.12900
H263        H  0.03663201  0.28505033  0.39405315     0.12900
H264        H  0.93741743  0.11915393  0.41918065     0.12900
H265        H  0.93844425  0.11852673  0.39200015     0.12900
H266        H  0.05836392  0.44771592  0.41759588     0.26200
H267        H  0.06526392  0.44677330  0.39471885     0.26200
N268        N  0.00200368  0.13869020  0.30730040    -0.36600
N269        N  0.55935100  0.18916320  0.28785184    -0.57200
N270        N  0.02234905  0.27641044  0.30740121    -0.36600
N271        N  0.99033436  0.20973215  0.32669887    -0.57200
C272        C  0.54889909  0.09479986  0.29813558     0.27000
C273        C  0.99804725  0.11488262  0.31910156     0.27000
C274        C  0.56959736  0.28341502  0.29873165     0.27000
C275        C  0.02875011  0.29909318  0.31931037     0.27000
C276        C  0.55760099  0.15205993  0.27951949     0.35600
C277        C  0.56378371  0.22653278  0.27981232     0.35600
C278        C  0.96853734  0.17689583  0.33348005     0.35600
C279        C  0.98656673  0.24728544  0.33434466     0.35600
C280        C  0.52910075  0.05613215  0.30362955    -0.21900
C281        C  0.01576642  0.07198461  0.31726989    -0.21900
C282        C  0.55879642  0.32512741  0.30446169    -0.21900
C283        C  0.05052506  0.33947741  0.31674174    -0.21900
C284        C  0.56055485  0.16618219  0.26603951    -0.23000
C285        C  0.56428705  0.21305116  0.26622574    -0.22900
C286        C  0.94836797  0.19432976  0.34518959    -0.23000
C287        C  0.96058368  0.23892789  0.34586372    -0.22900
C288        C  0.55037122  0.10621726  0.28400799    -0.18300
C289        C  0.97812091  0.13098933  0.33137291    -0.18300
C290        C  0.01401296  0.28518019  0.33239138    -0.18300
C291        C  0.56533284  0.27255989  0.28464463    -0.18300
H292        H  0.51219882  0.02883563  0.29840144     0.14600
H293        H  0.01707851  0.04493746  0.32469212     0.14600
H294        H  0.54346889  0.35377653  0.29944107     0.14600
H295        H  0.05942503  0.36545561  0.32407377     0.14600
H296        H  0.55957129  0.14499047  0.25700448     0.12900
H297        H  0.56699285  0.23474821  0.25736589     0.12900
H298        H  0.93077093  0.17584514  0.35312522     0.12900
H299        H  0.95328814  0.26159919  0.35427589     0.12900
H300        H  0.98707535  0.16973866  0.30517727     0.26200
H301        H  0.00338473  0.24727019  0.30596643     0.26200
C302        C  0.54277370  0.43763148  0.24965136    -0.02500
C303        C  0.56000439  0.31242496  0.27501725    -0.06100
C304        C  0.51876337  0.31905256  0.26858890    -0.17300
C305        C  0.50810347  0.35896123  0.26132560     0.11100
C306        C  0.54168928  0.39473952  0.25966150    -0.06100
C307        C  0.07597767  0.39860723  0.26452678    -0.17300
C308        C  0.08097563  0.35765166  0.27180599     0.11100
S309        S  0.44923716  0.35757276  0.25634888    -0.32300
S310        S  0.13575038  0.34570621  0.27883941    -0.32300
H311        H  0.12934393  0.29881481  0.28027144     0.29100
H312        H  0.43982691  0.40285534  0.25393509     0.29100
H313        H  0.49334028  0.29297839  0.26982344     0.19700
H314        H  0.10447407  0.42149520  0.26428669     0.19700
C315        C  0.54292668  0.06768776  0.27396207    -0.06100
C316        C  0.50019004  0.04751120  0.27327490    -0.17300
C317        C  0.50996335  0.49449459  0.26864715     0.11100
C318        C  0.54551723  0.48139857  0.25950528    -0.06100
C319        C  0.06242085  0.02165843  0.26030055    -0.17300
C320        C  0.06473294  0.06375580  0.26722413     0.11100
S321        S  0.46400635  0.45775138  0.27291676    -0.32300
S322        S  0.11745713  0.09386820  0.26665804    -0.32300
H323        H  0.11469084  0.11112894  0.28003235     0.29100
H324        H  0.44925562  0.48044431  0.28477382     0.29100
H325        H  0.47285205  0.06335422  0.27887313     0.19700
H326        H  0.09352864  0.00949326  0.25593115     0.19700
C327        C  0.05868876  0.33931208  0.37079859    -0.06100
C328        C  0.08671116  0.31023956  0.36330259    -0.17300
C329        C  0.07383566  0.29398830  0.35045192     0.11100
C330        C  0.03201660  0.30730377  0.34486741    -0.06100
C331        C  0.56818423  0.30688519  0.35160515    -0.17300
C332        C  0.01634367  0.35148527  0.36538609     0.11100
S333        S  0.11177794  0.25535029  0.34193402    -0.32300
S334        S  0.51338386  0.34047005  0.37182443    -0.32300
H335        H  0.52449367  0.37947554  0.37925689     0.29100
H336        H  0.10626856  0.27284168  0.32875861     0.29100
H337        H  0.11955643  0.30157970  0.36726963     0.19700
H338        H  0.53671046  0.29492243  0.34735632     0.19700
C339        C  0.96100956  0.06199382  0.36944149    -0.06100
C340        C  0.99921313  0.08863332  0.36716118    -0.17300
C341        C  0.00735160  0.10822824  0.35442546     0.11100
C342        C  0.97599608  0.10205128  0.34372084    -0.06100
C343        C  0.51226152  0.10930505  0.35082239    -0.17300
C344        C  0.92960017  0.05573458  0.35876934     0.11100
S345        S  0.05788197  0.14180034  0.35265515    -0.32300
S346        S  0.48828330  0.46744127  0.36054180    -0.32300
H347        H  0.48324496  0.46960715  0.37482161     0.29100
H348        H  0.06204962  0.13865447  0.33838810     0.29100
H349        H  0.02414838  0.09203536  0.37514196     0.19700
H350        H  0.49803365  0.13831800  0.34565219     0.19700
C351        C  0.04889414  0.29010617  0.46771055    -0.06100
C352        C  0.08523455  0.27812060  0.45911902    -0.17300
C353        C  0.09577098  0.30307498  0.44736952     0.11100
C354        C  0.06864579  0.34013396  0.44372015    -0.06100
C355        C  0.03306350  0.35292120  0.45240180    -0.17300
C356        C  0.02346920  0.32916303  0.46446252     0.11100
S357        S  0.14506229  0.28704390  0.43771191    -0.32300
S358        S  0.98009366  0.35092123  0.47572323    -0.32300
H359        H  0.97940049  0.39507089  0.47035330     0.29100
H360        H  0.15805432  0.33153440  0.43445080     0.29100
H361        H  0.10581742  0.24904006  0.46155197     0.19700
H362        H  0.01312120  0.38228244  0.44977881     0.19700
C363        C  0.98223673  0.11968229  0.46475023    -0.06100
C364        C  0.93945871  0.10031891  0.46293406    -0.17300
C365        C  0.92974685  0.07397671  0.45135444     0.11100
C366        C  0.96357743  0.06625992  0.44141931    -0.06100
C367        C  0.00575937  0.08665134  0.44300625    -0.17300
C368        C  0.01517824  0.11380359  0.45435627     0.11100
S369        S  0.98360776  0.49867056  0.44658946    -0.32300
S370        S  0.06925961  0.14144571  0.45462876    -0.32300
H371        H  0.05148833  0.18305920  0.45907181     0.29100
H372        H  0.98610688  0.50188950  0.43225958     0.29100
H373        H  0.91369037  0.10504854  0.47068613     0.19700
H374        H  0.03179696  0.08080129  0.43540180     0.19700
C375        C  0.04731108  0.27940253  0.53130212    -0.06100
C376        C  0.01197875  0.30335537  0.53766502    -0.17300
C377        C  0.01875132  0.32906148  0.54949395     0.11100
C378        C  0.06217704  0.33199366  0.55519136    -0.06100
C379        C  0.09752380  0.30782601  0.54911310    -0.17300
C380        C  0.09063424  0.28123822  0.53740848     0.11100
S381        S  0.97074741  0.35900204  0.55640929    -0.32300
S382        S  0.13901915  0.25179983  0.53075940    -0.32300
H383        H  0.12017382  0.20914961  0.53350388     0.29100
H384        H  0.98674515  0.36424501  0.56979100     0.29100
H385        H  0.97843074  0.30229389  0.53340680     0.19700
H386        H  0.13106699  0.31071472  0.55332273     0.19700
C387        C  0.95434122  0.06426432  0.55312908    -0.06100
C388        C  0.99833991  0.08016879  0.55136621    -0.17300
C389        C  0.01073326  0.10516577  0.53979028     0.11100
C390        C  0.97855926  0.11363513  0.52947036    -0.06100
C391        C  0.93397313  0.09905294  0.53154277    -0.17300
C392        C  0.92152882  0.07481646  0.54327360     0.11100
S393        S  0.06678402  0.12875121  0.53900098    -0.32300
S394        S  0.94907722  0.51623033  0.55049505    -0.32300
H395        H  0.95651587  0.52050375  0.56461018     0.29100
H396        H  0.08501634  0.10385341  0.54986838     0.29100
H397        H  0.02314778  0.07231335  0.55906445     0.19700
H398        H  0.90863171  0.10643087  0.52395109     0.19700
C399        C  0.05475552  0.31857388  0.65301598    -0.06100
C400        C  0.09181683  0.30102446  0.64577253    -0.17300
C401        C  0.10512132  0.31908867  0.63316528     0.11100
C402        C  0.08003157  0.35482186  0.62750159    -0.06100
C403        C  0.04336521  0.37266070  0.63491849    -0.17300
C404        C  0.03103686  0.35567342  0.64768228     0.11100
S405        S  0.15345485  0.29428902  0.62483507    -0.32300
S406        S  0.47913876  0.38216356  0.65485138    -0.32300
H407        H  0.48984591  0.36430657  0.66768021     0.29100
H408        H  0.16468814  0.33141737  0.61657180     0.29100
H409        H  0.10966189  0.27206958  0.64981284     0.19700
H410        H  0.02435493  0.40048413  0.63070397     0.19700
C411        C  0.95331416  0.06951518  0.62480563    -0.06100
C412        C  0.99649838  0.08673608  0.62728100    -0.17300
C413        C  0.00701725  0.10738269  0.63976712     0.11100
C414        C  0.97370065  0.11123369  0.65012055    -0.06100
C415        C  0.93015321  0.09524533  0.64748345    -0.17300
C416        C  0.91955402  0.07501339  0.63491626     0.11100
S417        S  0.06342924  0.12882958  0.64183869    -0.32300
S418        S  0.98118002  0.48863777  0.62978943    -0.32300
H419        H  0.98228605  0.49447393  0.61554537     0.29100
H420        H  0.06563705  0.12136766  0.65599442     0.29100
H421        H  0.02281799  0.08183435  0.61970824     0.19700
H422        H  0.90392470  0.09991948  0.65509385     0.19700
C423        C  0.54508986  0.32453245  0.72026220    -0.06100
C424        C  0.50704410  0.35258082  0.72049265    -0.17300
C425        C  0.50704171  0.39562393  0.72685873     0.11100
C426        C  0.54567048  0.41110055  0.73429428    -0.06100
C427        C  0.08480028  0.38511157  0.73650361    -0.17300
C428        C  0.08410257  0.34252274  0.72992854     0.11100
S429        S  0.45653167  0.42908222  0.72527530    -0.32300
S430        S  0.13639483  0.31164426  0.72913532    -0.32300
H431        H  0.11785910  0.26876572  0.72660322     0.29100
H432        H  0.42801388  0.39464470  0.72043727     0.29100
H433        H  0.47752106  0.34131480  0.71500640     0.19700
H434        H  0.11683226  0.39578514  0.74048054     0.19700
C435        C  0.51701723  0.08053939  0.71688159    -0.06100
C436        C  0.05606650  0.05383068  0.72019094    -0.17300
C437        C  0.08190173  0.51398277  0.73010231     0.11100
C438        C  0.53856597  0.49681228  0.73507201    -0.06100
C439        C  0.48107692  0.02585533  0.73222563    -0.17300
C440        C  0.47946631  0.06650529  0.72470267     0.11100
S441        S  0.13290048  0.48093503  0.72887846    -0.32300
S442        S  0.42737086  0.09803788  0.72549569    -0.32300
H443        H  0.43378586  0.12560026  0.71400824     0.29100
H444        H  0.15321513  0.50507952  0.71811309     0.29100
H445        H  0.08449451  0.06400729  0.71394875     0.19700
H446        H  0.45044320  0.01683555  0.73746173     0.19700
C447        C  0.41736919  0.44730572  0.76959552    -0.06100
C448        C  0.43384187  0.40786569  0.76337075    -0.17300
C449        C  0.47692682  0.40623512  0.75712694     0.11100
C450        C  0.50243031  0.44705638  0.75498588    -0.06100
C451        C  0.48794735  0.48455601  0.76289815    -0.17300
C452        C  0.44621989  0.48549905  0.76981603     0.11100
S453        S  0.50142055  0.35048768  0.75537750    -0.32300
S454        S  0.41483326  0.04919277  0.77498128    -0.32300
H455        H  0.36775390  0.04487223  0.77497528     0.29100
H456        H  0.46061215  0.32655723  0.75436566     0.29100
H457        H  0.41491907  0.37688680  0.76481149     0.19700
H458        H  0.50784892  0.51501157  0.76299541     0.19700
C459        C  0.08760540  0.45898140  0.75780855    -0.06100
C460        C  0.10260971  0.41900147  0.76433835    -0.17300
C461        C  0.14504259  0.41559417  0.77064302     0.11100
C462        C  0.17258506  0.45423596  0.77225252    -0.06100
C463        C  0.15534821  0.49561159  0.76770633    -0.17300
C464        C  0.11328824  0.49901573  0.76103445     0.11100
S465        S  0.16162230  0.36079193  0.77685632    -0.32300
S466        S  0.06795750  0.05622071  0.75633060    -0.32300
H467        H  0.10947309  0.07885557  0.75512000     0.29100
H468        H  0.20817893  0.36806915  0.77548837     0.29100
H469        H  0.08267608  0.38858100  0.76363138     0.19700
H470        H  0.17386068  0.52609562  0.77021521     0.19700
C471        C  0.44160076  0.41955684  0.86691410    -0.06100
C472        C  0.45567819  0.45905122  0.86013568    -0.17300
C473        C  0.44029129  0.46949589  0.84706832     0.11100
C474        C  0.40917540  0.44050267  0.84066557    -0.06100
C475        C  0.39505664  0.40097738  0.84742207    -0.17300
C476        C  0.41115721  0.39001367  0.86041746     0.11100
S477        S  0.45969242  0.52138169  0.83937887    -0.32300
S478        S  0.39311522  0.33714256  0.86781650    -0.32300
H479        H  0.40056706  0.34872550  0.88152968     0.29100
H480        H  0.45335363  0.50771139  0.82575793     0.29100
H481        H  0.48019759  0.48111812  0.86491338     0.19700
H482        H  0.37018261  0.37923616  0.84268501     0.19700
C483        C  0.15614272  0.48620366  0.86891931    -0.06100
C484        C  0.18292808  0.44894080  0.86550729    -0.17300
C485        C  0.20380906  0.44603217  0.85273216     0.11100
C486        C  0.19851203  0.48162387  0.84321795    -0.06100
C487        C  0.17268062  0.51944229  0.84678171    -0.17300
C488        C  0.15126473  0.52207730  0.85950615     0.11100
S489        S  0.23712830  0.39625677  0.84924694    -0.32300
S490        S  0.11723870  0.57150191  0.86290508    -0.32300
H491        H  0.11380791  0.56687473  0.87714640     0.29100
H492        H  0.23112240  0.39631499  0.83501894     0.29100
H493        H  0.18566581  0.42093553  0.87258615     0.19700
H494        H  0.16992438  0.54739932  0.83969261     0.19700
C495        C  0.41819802  0.43383918  0.22398563    -0.06100
C496        C  0.43193510  0.47473125  0.22994455    -0.17300
C497        C  0.47275129  0.47915384  0.23726334     0.11100
C498        C  0.50083667  0.44026759  0.23964912    -0.06100
C499        C  0.48952652  0.40122869  0.23195256    -0.17300
C500        C  0.44752884  0.39632755  0.22534681     0.11100
S501        S  0.47479474  0.04816716  0.23896689    -0.32300
S502        S  0.43257858  0.34042479  0.21935734    -0.32300
H503        H  0.38594204  0.34807617  0.21884063     0.29100
H504        H  0.43836901  0.07422892  0.23437600     0.29100
H505        H  0.41189269  0.50450533  0.22790702     0.19700
H506        H  0.51110133  0.37189468  0.23246542     0.19700
C507        C  0.17301018  0.45415888  0.22262165    -0.06100
C508        C  0.15990581  0.41430831  0.22923323    -0.17300
C509        C  0.11696328  0.40891164  0.23538750     0.11100
C510        C  0.08638307  0.44689763  0.23669490    -0.06100
C511        C  0.09852158  0.48511422  0.22868872    -0.17300
C512        C  0.14096507  0.48972790  0.22223149     0.11100
S513        S  0.10391519  0.34999885  0.23859698    -0.32300
S514        S  0.13008930  0.04830272  0.21812165    -0.32300
H515        H  0.19927216  0.54098604  0.21519607     0.29100
H516        H  0.05803813  0.35163453  0.23591519     0.29100
H517        H  0.18207413  0.38528758  0.22845269     0.19700
H518        H  0.07588009  0.51370140  0.22833964     0.19700
C519        C  0.35339713  0.95286585  0.96319862    -0.06100
C520        C  0.38425777  0.39860314  0.95740385    -0.17300
C521        C  0.40732929  0.39067881  0.94516547     0.11100
C522        C  0.40136328  0.94468072  0.93824641    -0.06100
C523        C  0.40328775  0.98486380  0.94588692    -0.17300
C524        C  0.37953299  0.98955988  0.95827327     0.11100
S525        S  0.40216987  0.33482849  0.93772889    -0.32300
S526        S  0.38582929  0.04124517  0.96800761    -0.32300
H527        H  0.41214977  0.06484608  0.95838586     0.29100
H528        H  0.41892264  0.34434100  0.92464489     0.29100
H529        H  0.36312832  0.37169358  0.96134821     0.19700
H530        H  0.42516937  0.01181480  0.94238141     0.19700
C531        C  0.17913781  0.95145718  0.96415142    -0.06100
C532        C  0.14774528  0.98621475  0.96206064    -0.17300
C533        C  0.12332983  0.98911316  0.94990236     0.11100
C534        C  0.13036561  0.95663858  0.93945867    -0.06100
C535        C  0.18838898  0.45462791  0.94194428    -0.17300
C536        C  0.21491656  0.44697646  0.95344752     0.11100
S537        S  0.08276836  0.03428409  0.94849482    -0.32300
S538        S  0.24902516  0.39662538  0.95328315    -0.32300
H539        H  0.28777591  0.41963676  0.95764423     0.29100
H540        H  0.08246999  0.03622139  0.93414512     0.29100
H541        H  0.14213771  0.01137654  0.96996995     0.19700
H542        H  0.18710075  0.42915466  0.93395976     0.19700
C543        C  0.43944720  0.41332925  0.12590896    -0.06100
C544        C  0.45194057  0.45428738  0.13214066    -0.17300
C545        C  0.43543096  0.46663597  0.14501767     0.11100
C546        C  0.40508985  0.43757357  0.15183771    -0.06100
C547        C  0.39270575  0.39639392  0.14562764    -0.17300
C548        C  0.40995094  0.38376038  0.13281633     0.11100
S549        S  0.40923317  0.07526354  0.15372878    -0.32300
S550        S  0.39542867  0.32866015  0.12617906    -0.32300
H551        H  0.40045633  0.33957779  0.11229231     0.29100
H552        H  0.38973445  0.06691424  0.16656484     0.29100
H553        H  0.43657110  0.03898013  0.12805524     0.19700
H554        H  0.36876743  0.37434376  0.15071377     0.19700
C555        C  0.15458543  0.48298322  0.12580164    -0.06100
C556        C  0.17942497  0.44472761  0.12945908    -0.17300
C557        C  0.20005979  0.44206152  0.14223857     0.11100
C558        C  0.19508829  0.47824349  0.15169637    -0.06100
C559        C  0.17086261  0.51670892  0.14791131    -0.17300
C560        C  0.15119116  0.51974634  0.13502876     0.11100
S561        S  0.23343269  0.39226402  0.14557308    -0.32300
S562        S  0.12091227  0.57091264  0.13109309    -0.32300
H563        H  0.12391518  0.56695540  0.11679988     0.29100
H564        H  0.23498803  0.39615190  0.15985553     0.29100
H565        H  0.18133543  0.41614701  0.12250673     0.19700
H566        H  0.16879876  0.54528103  0.15485716     0.19700
C567        C  0.40465589  0.96801981  0.05320095    -0.06100
C568        C  0.40412670  0.38865169  0.04966569    -0.17300
C569        C  0.37794452  0.39316085  0.03789719     0.11100
C570        C  0.35342368  0.96136277  0.02905817    -0.06100
C571        C  0.38138969  0.99900276  0.03139746    -0.17300
C572        C  0.40686976  0.00271513  0.04334630     0.11100
S573        S  0.33610180  0.35005187  0.03508486    -0.32300
S574        S  0.44309035  0.05135725  0.04521113    -0.32300
H575        H  0.44305086  0.05172264  0.05958141     0.29100
H576        H  0.30140751  0.38168222  0.03322302     0.29100
H577        H  0.40004964  0.35895667  0.05603313     0.19700
H578        H  0.38394818  0.02544466  0.02378364     0.19700
C579        C  0.13511765  0.96349342  0.05485992    -0.06100
C580        C  0.17203448  0.43628212  0.04929529    -0.17300
C581        C  0.19500956  0.42941814  0.03694472     0.11100
C582        C  0.18072808  0.95665068  0.02945021    -0.06100
C583        C  0.16719005  0.99896367  0.03472339    -0.17300
C584        C  0.14412145  0.00269290  0.04716462     0.11100
S585        S  0.20324325  0.37135173  0.03187693    -0.32300
S586        S  0.12487252  0.05811666  0.05228958    -0.32300
H587        H  0.12418105  0.04993796  0.06640903     0.29100
H588        H  0.18058079  0.37691973  0.01940412     0.29100
H589        H  0.16044366  0.40719068  0.05506203     0.19700
H590        H  0.17410068  0.02965883  0.02906020     0.19700
N591        N  0.04377538  0.48882578  0.06867475    -0.36600
N592        N  0.44722883  0.96101628  0.08905577    -0.57200
N593        N  0.51434293  0.94949502  0.10931544    -0.36600
N594        N  0.08763385  0.95641665  0.09033237    -0.57200
C595        C  0.51185032  0.39999789  0.06123032     0.27000
C596        C  0.08019896  0.47823663  0.06092861     0.27000
C597        C  0.47646128  0.94294029  0.11668821     0.27000
C598        C  0.05239444  0.93854310  0.11740456     0.27000
C599        C  0.45217153  0.41483492  0.07837507     0.35600
C600        C  0.42238510  0.97280009  0.10009655     0.35600
C601        C  0.13969492  0.48751853  0.07849817     0.35600
C602        C  0.11208508  0.96379113  0.10173168     0.35600
C603        C  0.52567835  0.38569374  0.04838028    -0.21900
C604        C  0.06629221  0.46327270  0.04817165    -0.21900
C605        C  0.48648405  0.92088883  0.12879114    -0.21900
C606        C  0.03851304  0.91714448  0.12928984    -0.21900
C607        C  0.41108025  0.43171623  0.08280883    -0.23000
C608        C  0.38227014  0.99219415  0.09604512    -0.22900
C609        C  0.18329019  0.49612299  0.08275244    -0.23000
C610        C  0.15476409  0.97881537  0.09826847    -0.22900
C611        C  0.46718527  0.41189609  0.06468730    -0.18300
C612        C  0.12575986  0.48343857  0.06477640    -0.18300
C613        C  0.09603491  0.95490081  0.11505892    -0.18300
C614        C  0.43470308  0.96247004  0.11361881    -0.18300
H615        H  0.50475998  0.37891615  0.03958578     0.14600
H616        H  0.08700338  0.45275980  0.03961054     0.14600
H617        H  0.46377286  0.91241673  0.13707525     0.14600
H618        H  0.05932857  0.90590774  0.13766349     0.14600
H619        H  0.38439157  0.44535300  0.07657515     0.12900
H620        H  0.35506394  0.00387050  0.10255061     0.12900
H621        H  0.21249498  0.50248311  0.07637983     0.12900
H622        H  0.18201558  0.98693051  0.10514695     0.12900
H623        H  0.04409829  0.50563206  0.07801928     0.26200
H624        H  0.51793320  0.97172422  0.10114331     0.26200
O625        O  0.22108761  0.91591246  0.98204619    -0.72900
O626        O  0.31520711  0.92100149  0.01127979    -0.73900
O627        O  0.22188991  0.91863042  0.01155323    -0.62500
O628        O  0.31456705  0.91777066  0.98177486    -0.71000
O629        O  0.35349115  0.48468425  0.98256791    -0.70500
O630        O  0.25950540  0.49822249  0.01222205    -0.61800
O631        O  0.35210244  0.47900008  0.01212053    -0.74300
O632        O  0.26122728  0.50450430  0.98275011    -0.73100
Cu633      Cu  0.26826651  0.91580292  0.99668051     1.04600
Cu634      Cu  0.30714568  0.49421569  0.99747993     1.04300
C635        C  0.24161673  0.47117824  0.97692172     0.93300
C636        C  0.35696091  0.43873455  0.01666042     0.92400
C637        C  0.23852663  0.46329431  0.01665528     0.84500
C638        C  0.35936674  0.44585932  0.97704094     0.90800
N639        N  0.19748705  0.97669465  0.19085493    -0.36600
N640        N  0.26980403  0.95721705  0.21041289    -0.57200
N641        N  0.33639416  0.97858512  0.18908014    -0.36600
N642        N  0.26413729  0.99733674  0.17050075    -0.57200
C643        C  0.17448757  0.95683974  0.20113512     0.27000
C644        C  0.17317006  0.97088296  0.17927628     0.27000
C645        C  0.36357859  0.95975567  0.19851956     0.27000
C646        C  0.35853006  0.97777012  0.17690561     0.27000
C647        C  0.23369299  0.95945236  0.21911851     0.35600
C648        C  0.30819919  0.95855747  0.21803066     0.35600
C649        C  0.22662492  0.00838131  0.16370404     0.35600
C650        C  0.29881220  0.01233808  0.16291795     0.35600
C651        C  0.13439782  0.93930691  0.19612556    -0.21900
C652        C  0.13390321  0.94765274  0.18227270    -0.21900
C653        C  0.40428435  0.94841039  0.19225613    -0.21900
C654        C  0.40062343  0.95881210  0.17861254    -0.21900
C655        C  0.24938779  0.96139708  0.23241840    -0.23000
C656        C  0.29616788  0.96061304  0.23174019    -0.22900
C657        C  0.23728438  0.03222036  0.15194861    -0.23000
C658        C  0.28325481  0.03480295  0.15145604    -0.22900
C659        C  0.18706065  0.95773181  0.21507501    -0.18300
C660        C  0.18528048  0.98725430  0.16619720    -0.18300
C661        C  0.34266858  0.99596996  0.16445739    -0.18300
C662        C  0.35367619  0.95597278  0.21274710    -0.18300
H663        H  0.10825171  0.92211813  0.20184895     0.14600
H664        H  0.10736963  0.93841798  0.17526147     0.14600
H665        H  0.43412550  0.93456102  0.19687736     0.14600
H666        H  0.42661736  0.95440298  0.17092726     0.14600
H667        H  0.22924250  0.96283913  0.24165661     0.12900
H668        H  0.31875651  0.96146964  0.24037415     0.12900
H669        H  0.21455030  0.04337985  0.14404470     0.12900
H670        H  0.30295835  0.04833193  0.14307737     0.12900
H671        H  0.22600532  0.99673979  0.19208338     0.26200
H672        H  0.30620483  0.99516493  0.19119749     0.26200
N673        N  0.54741815  0.41808900  0.92377875    -0.36600
N674        N  0.44667031  0.93141101  0.90262535    -0.57200
N675        N  0.51763412  0.92329143  0.88310745    -0.36600
N676        N  0.09076861  0.95280014  0.90296061    -0.57200
C677        C  0.51146781  0.40712243  0.93159874     0.27000
C678        C  0.08256695  0.48639259  0.93366266     0.27000
C679        C  0.48104794  0.91343397  0.87558166     0.27000
C680        C  0.06011568  0.94264751  0.87493219     0.27000
C681        C  0.45211477  0.42094918  0.91453945     0.35600
C682        C  0.42373712  0.94312870  0.89131805     0.35600
C683        C  0.14103765  0.49925131  0.91605149     0.35600
C684        C  0.11604412  0.96571870  0.89215140     0.35600
C685        C  0.52582581  0.39259069  0.94431059    -0.21900
C686        C  0.06915338  0.47110375  0.94642275    -0.21900
C687        C  0.49378579  0.89130993  0.86366674    -0.21900
C688        C  0.04913883  0.92497642  0.86222962    -0.21900
C689        C  0.41103646  0.43757553  0.91017811    -0.23000
C690        C  0.38381224  0.96430682  0.89490343    -0.22900
C691        C  0.18295426  0.51326995  0.91146179    -0.23000
C692        C  0.15670451  0.98320094  0.89659496    -0.22900
C693        C  0.46638355  0.41656559  0.92820284    -0.18300
C694        C  0.12769272  0.49490732  0.92983656    -0.18300
C695        C  0.10277142  0.95967795  0.87843026    -0.18300
C696        C  0.43838749  0.93219845  0.87799306    -0.18300
H697        H  0.50507751  0.38302407  0.95296188     0.14600
H698        H  0.09031145  0.46228594  0.95497733     0.14600
H699        H  0.47236639  0.88095740  0.85531222     0.14600
H700        H  0.07169467  0.91806277  0.85375107     0.14600
H701        H  0.38395601  0.45065318  0.91648267     0.12900
H702        H  0.35808002  0.97673540  0.88809477     0.12900
H703        H  0.21099915  0.52455082  0.91760785     0.12900
H704        H  0.18421350  0.99554391  0.89033770     0.12900
H705        H  0.54617983  0.43631409  0.91471084     0.26200
H706        H  0.51868108  0.94660474  0.89108188     0.26200
N707        N  0.34461646  0.97336202  0.80238123    -0.36600
N708        N  0.27751169  0.99502068  0.82245238    -0.57200
N709        N  0.20666944  0.97979455  0.80330454    -0.36600
N710        N  0.27443360  0.96064021  0.78205033    -0.57200
C711        C  0.36603874  0.96249969  0.81411908     0.27000
C712        C  0.36740251  0.95354412  0.79202003     0.27000
C713        C  0.18368663  0.97706922  0.81533840     0.27000
C714        C  0.18025134  0.96203219  0.79343231     0.27000
C715        C  0.31469801  0.00248048  0.82981995     0.35600
C716        C  0.24272365  0.00904159  0.83014350     0.35600
C717        C  0.31114630  0.96257947  0.77361701     0.35600
C718        C  0.23675331  0.96276102  0.77419355     0.35600
C719        C  0.40283541  0.93540669  0.81117570    -0.21900
C720        C  0.40420112  0.93041273  0.79716529    -0.21900
C721        C  0.14185534  0.95814190  0.81307778    -0.21900
C722        C  0.13925377  0.94949718  0.79926818    -0.21900
C723        C  0.30383879  0.02389020  0.84203217    -0.23000
C724        C  0.25799551  0.02836724  0.84219362    -0.22900
C725        C  0.29663362  0.96536157  0.76021192    -0.23000
C726        C  0.24980238  0.96520644  0.76056456    -0.22900
C727        C  0.35482157  0.97921319  0.82724172    -0.18300
C728        C  0.35707140  0.95839253  0.77802098    -0.18300
C729        C  0.19110277  0.95989983  0.77922159    -0.18300
C730        C  0.19916467  0.99235805  0.82823806    -0.18300
H731        H  0.42689890  0.92181885  0.81833584     0.14600
H732        H  0.42924096  0.91160026  0.79144416     0.14600
H733        H  0.11551231  0.95217846  0.82054506     0.14600
H734        H  0.11006588  0.93561640  0.79423483     0.14600
H735        H  0.32600717  0.03152515  0.85046623     0.12900
H736        H  0.23795976  0.03991619  0.85079442     0.12900
H737        H  0.31755553  0.96625775  0.75112488     0.12900
H738        H  0.22787871  0.96628381  0.75177727     0.12900
H739        H  0.31880369  0.99688227  0.80120117     0.26200
H740        H  0.23697139  0.99651162  0.80160099     0.26200
N741        N  0.02151705  0.63207422  0.68794041    -0.36600
N742        N  0.51172211  0.70087940  0.70540873    -0.57200
N743        N  0.99490755  0.76816967  0.68779546    -0.36600
N744        N  0.98574770  0.69609055  0.66870133    -0.57200
C745        C  0.04408579  0.61040313  0.69789510     0.27000
C746        C  0.03114876  0.61091715  0.67597099     0.27000
C747        C  0.01465480  0.79668683  0.69676561     0.27000
C748        C  0.98876523  0.79130491  0.67599474     0.27000
C749        C  0.51593073  0.66426605  0.71376416     0.35600
C750        C  0.50959682  0.73865702  0.71340388     0.35600
C751        C  0.98352754  0.65806514  0.66122509     0.35600
C752        C  0.96235086  0.72742742  0.66186478     0.35600
C753        C  0.06727196  0.57401379  0.69216004    -0.21900
C754        C  0.05988079  0.57508899  0.67829823    -0.21900
C755        C  0.02074665  0.83861665  0.69059790    -0.21900
C756        C  0.00434303  0.83518864  0.67749781    -0.21900
C757        C  0.51700913  0.67908904  0.72722135    -0.23000
C758        C  0.51311562  0.72597932  0.72699317    -0.22900
C759        C  0.95737047  0.66454416  0.64972999    -0.23000
C760        C  0.94335417  0.70856933  0.65021672    -0.22900
C761        C  0.52206923  0.61838777  0.70913241    -0.18300
C762        C  0.01259106  0.62165115  0.66315565    -0.18300
C763        C  0.96816579  0.77391801  0.66408261    -0.18300
C764        C  0.50671394  0.78417990  0.70833810    -0.18300
H765        H  0.08789917  0.54909454  0.69713032     0.14600
H766        H  0.07301851  0.55129517  0.67084991     0.14600
H767        H  0.03493200  0.86883397  0.69514585     0.14600
H768        H  0.00354344  0.86202303  0.66999537     0.14600
H769        H  0.52101339  0.65838487  0.73623742     0.12900
H770        H  0.51318729  0.74820185  0.73580693     0.12900
H771        H  0.95159451  0.64096611  0.64143109     0.12900
H772        H  0.92496420  0.72571687  0.64224805     0.12900
H773        H  0.99736234  0.65697374  0.68960445     0.26200
H774        H  0.98180797  0.73639666  0.69015068     0.26200
N775        N  0.94218217  0.95301152  0.61003595    -0.36600
N776        N  0.93748538  0.88076012  0.58952514    -0.57200
N777        N  0.93671383  0.94862795  0.56835088    -0.36600
N778        N  0.94363741  0.02084386  0.58905993    -0.57200
C779        C  0.95319020  0.91643559  0.61755190     0.27000
C780        C  0.95431875  0.98982571  0.61741672     0.27000
C781        C  0.94449887  0.91072764  0.56082058     0.27000
C782        C  0.94891772  0.98444246  0.56054373     0.27000
C783        C  0.93345148  0.85540354  0.60093239     0.35600
C784        C  0.93057690  0.85280201  0.57877532     0.35600
C785        C  0.04690065  0.54544629  0.59963562     0.35600
C786        C  0.04003245  0.54219307  0.57769812     0.35600
C787        C  0.97218640  0.93029828  0.62982097    -0.21900
C788        C  0.97271307  0.97642481  0.62975214    -0.21900
C789        C  0.96119149  0.92277064  0.54807791    -0.21900
C790        C  0.96391067  0.96905868  0.54789443    -0.21900
C791        C  0.92375664  0.81095895  0.59745133    -0.23000
C792        C  0.92200093  0.80928547  0.58338303    -0.22900
C793        C  0.02056910  0.58210830  0.59601459    -0.23000
C794        C  0.01667477  0.58038658  0.58196326    -0.22900
C795        C  0.94394057  0.87083395  0.61422797    -0.18300
C796        C  0.06071682  0.53407051  0.61290166    -0.18300
C797        C  0.04513302  0.52691373  0.56414872    -0.18300
C798        C  0.93636044  0.86541434  0.56492242    -0.18300
H799        H  0.98407564  0.90948422  0.63812811     0.14600
H800        H  0.98531137  0.99758535  0.63792911     0.14600
H801        H  0.97080990  0.90053011  0.53975372     0.14600
H802        H  0.97588267  0.98907070  0.53936858     0.14600
H803        H  0.92023543  0.78245985  0.60430233     0.12900
H804        H  0.91647821  0.77926711  0.57724791     0.12900
H805        H  0.00614320  0.60743123  0.60274424     0.12900
H806        H  0.99828126  0.60393544  0.57565163     0.12900
H807        H  0.92296335  0.95284544  0.60118265     0.26200
H808        H  0.92026202  0.95030743  0.57773875     0.26200
O809        O  0.94376891  0.72860024  0.48265287    -0.72900
O810        O  0.97431625  0.63522832  0.51106282    -0.73900
O811        O  0.93994132  0.72409249  0.51241684    -0.62500
O812        O  0.97732303  0.63933648  0.48157882    -0.71000
O813        O  0.04648971  0.66699353  0.48250320    -0.70500
O814        O  0.01000749  0.74950643  0.51356224    -0.61800
O815        O  0.04375212  0.66185223  0.51160129    -0.74300
O816        O  0.01317039  0.75549628  0.48400255    -0.73100
Cu817      Cu  0.95629654  0.68093214  0.49689777     1.04600
Cu818      Cu  0.03058148  0.70943670  0.49795048     1.04300
C819        C  0.97455791  0.75534623  0.47832497     0.93300
C820        C  0.01381376  0.63500470  0.51620441     0.92400
C821        C  0.96988115  0.74821684  0.51835646     0.84500
C822        C  0.01749691  0.64122242  0.47680748     0.90800
C823        C  0.02285983  0.95523218  0.74568058    -0.02500
N824        N  0.95391990  0.94913973  0.42637828    -0.36600
N825        N  0.95681638  0.87923454  0.40541823    -0.57200
N826        N  0.96063992  0.94924728  0.38520611    -0.36600
N827        N  0.95907921  0.01938866  0.40578627    -0.57200
C828        C  0.96268255  0.91195334  0.43399143     0.27000
C829        C  0.96412175  0.98576062  0.43416325     0.27000
C830        C  0.97477799  0.91298242  0.37795696     0.27000
C831        C  0.97439267  0.98602191  0.37820748     0.29800
C832        C  0.94862524  0.85258412  0.41632607     0.35600
C833        C  0.95273118  0.85300192  0.39415541     0.35600
C834        C  0.06606025  0.54408898  0.41602046     0.35600
C835        C  0.07328241  0.54164034  0.39392419     0.35600
C836        C  0.97792366  0.92527995  0.44677099    -0.21900
C837        C  0.97897288  0.97163841  0.44685580    -0.21900
C838        C  0.99822961  0.92695108  0.36640456    -0.21900
C839        C  0.99802636  0.97313030  0.36658032    -0.21900
C840        C  0.93916569  0.80888189  0.41196835    -0.23000
C841        C  0.94164791  0.80920014  0.39786099    -0.22900
C842        C  0.04672790  0.58339353  0.41104996    -0.23000
C843        C  0.05139789  0.58185071  0.39696234    -0.22900
C844        C  0.95542521  0.86628404  0.43003932    -0.18300
C845        C  0.06971103  0.53112520  0.42987425    -0.18300
C846        C  0.08456643  0.52514581  0.38076544    -0.18300
C847        C  0.96361945  0.86776630  0.38083425    -0.18300
H848        H  0.98716942  0.90394316  0.45526704     0.14600
H849        H  0.98926308  0.99254543  0.45538743     0.14600
H850        H  0.01310178  0.90614559  0.35846292     0.14600
H851        H  0.01261899  0.99476541  0.35882107     0.14600
H852        H  0.93271062  0.77960037  0.41830352     0.12900
H853        H  0.93741804  0.78033484  0.39115020     0.12900
H854        H  0.03084527  0.61012264  0.41691786     0.12900
H855        H  0.03968096  0.60701160  0.38980137     0.12900
H856        H  0.93773814  0.94954727  0.41703420     0.26200
H857        H  0.93750926  0.94905086  0.39320546     0.26200
N858        N  0.05149226  0.63017100  0.30548982    -0.36600
N859        N  0.53014541  0.69338442  0.28541678    -0.57200
N860        N  0.01549529  0.76446458  0.30673935    -0.36600
N861        N  0.02245979  0.69243353  0.32626367    -0.57200
C862        C  0.54481573  0.60231915  0.29651295     0.27000
C863        C  0.06621213  0.60830798  0.31675881     0.27000
C864        C  0.50912195  0.78800929  0.29549816     0.27000
C865        C  0.01045646  0.78765544  0.31865935     0.27000
C866        C  0.53476509  0.65590132  0.27734305     0.35600
C867        C  0.52547412  0.73005310  0.27714534     0.35600
C868        C  0.02362752  0.65395178  0.33352358     0.35600
C869        C  0.99851483  0.72196985  0.33379669     0.35600
C870        C  0.56897468  0.56739350  0.30240311    -0.21900
C871        C  0.09445032  0.57321609  0.31289080    -0.21900
C872        C  0.50933472  0.83184417  0.30078424    -0.21900
C873        C  0.01749003  0.83322068  0.31640033    -0.21900
C874        C  0.53378365  0.66897123  0.26376156    -0.23000
C875        C  0.52847226  0.71575726  0.26363463    -0.22900
C876        C  0.99973163  0.65874116  0.34564852    -0.23000
C877        C  0.98322416  0.70180001  0.34573315    -0.22900
C878        C  0.54258273  0.61091451  0.28234479    -0.18300
C879        C  0.05158126  0.61734297  0.33025716    -0.18300
C880        C  0.99880118  0.76866972  0.33146287    -0.18300
C881        C  0.52004362  0.77615381  0.28172201    -0.18300
H882        H  0.59136705  0.54389655  0.29727765     0.14600
H883        H  0.11072447  0.54901569  0.31950637     0.14600
H884        H  0.51878429  0.86281623  0.29566675     0.14600
H885        H  0.01541130  0.86041659  0.32381214     0.14600
H886        H  0.53758870  0.64726704  0.25489965     0.12900
H887        H  0.52685215  0.73682039  0.25461991     0.12900
H888        H  0.99606460  0.63450338  0.35384274     0.12900
H889        H  0.96479684  0.71744474  0.35406810     0.12900
H890        H  0.02576425  0.65392193  0.30502255     0.26200
H891        H  0.00742567  0.73061731  0.30511188     0.26200
C892        C  0.51820367  0.94424137  0.24772556    -0.02500
C893        C  0.52176266  0.81522165  0.27178168    -0.06100
C894        C  0.48193915  0.82695699  0.26521524    -0.17300
C895        C  0.47581736  0.86873114  0.25849786     0.11100
C896        C  0.51306296  0.90055546  0.25723865    -0.06100
C897        C  0.05572530  0.90053124  0.26626331    -0.17300
C898        C  0.06447063  0.85901493  0.27282899     0.11100
S899        S  0.41712003  0.87529753  0.25381267    -0.32300
S900        S  0.11867472  0.85233318  0.28080912    -0.32300
H901        H  0.11819270  0.80482303  0.28143563     0.29100
H902        H  0.41329811  0.92145271  0.25181155     0.29100
H903        H  0.45368890  0.80385431  0.26616685     0.19700
H904        H  0.08232085  0.92562186  0.26624875     0.19700
C905        C  0.54451408  0.56908478  0.27332106    -0.06100
C906        C  0.50936659  0.53777688  0.27482683    -0.17300
C907        C  0.49267242  0.00556138  0.26663347     0.11100
C908        C  0.52652618  0.98589684  0.25801662    -0.06100
C909        C  0.08941190  0.52043651  0.25695567    -0.17300
C910        C  0.09244279  0.56300305  0.26353128     0.11100
S911        S  0.43924555  0.97911301  0.26969905    -0.32300
S912        S  0.14514539  0.59297260  0.26228071    -0.32300
H913        H  0.12765712  0.63657578  0.26430263     0.29100
H914        H  0.42967477  0.00107020  0.28216523     0.29100
H915        H  0.48105899  0.54732291  0.28123044     0.19700
H916        H  0.11976409  0.50838942  0.25210195     0.19700
C917        C  0.96826520  0.83554900  0.36927269    -0.06100
C918        C  0.01044429  0.81534886  0.36730235    -0.17300
C919        C  0.02271238  0.79708192  0.35463280     0.11100
C920        C  0.99167106  0.79772865  0.34369707    -0.06100
C921        C  0.41583326  0.81068776  0.34471844    -0.17300
C922        C  0.93722152  0.83610542  0.35836095     0.11100
S923        S  0.07829836  0.77287708  0.35307552    -0.32300
S924        S  0.34869669  0.84358181  0.36148555    -0.32300
H925        H  0.35415861  0.84317560  0.37574052     0.29100
H926        H  0.08274191  0.77910757  0.33889559     0.29100
H927        H  0.03501535  0.81646988  0.37544238     0.19700
H928        H  0.38818965  0.80103936  0.33814432     0.19700
C929        C  0.07435918  0.55135442  0.36822038    -0.06100
C930        C  0.10405807  0.58535371  0.36390349    -0.17300
C931        C  0.09989642  0.60482356  0.35091896     0.11100
C932        C  0.06615875  0.58918004  0.34190530    -0.06100
C933        C  0.50312951  0.54545291  0.34593078    -0.17300
C934        C  0.04018039  0.53649535  0.35924577     0.11100
S935        S  0.13679354  0.65125730  0.34665737    -0.32300
S936        S  0.43884253  0.11914100  0.36774243    -0.32300
H937        H  0.41766052  0.08000863  0.37275495     0.29100
H938        H  0.13613433  0.64439729  0.33244392     0.29100
H939        H  0.13085198  0.59635072  0.37060653     0.19700
H940        H  0.48292480  0.52886356  0.33820291     0.19700
C941        C  0.96756221  0.78343941  0.46588613    -0.06100
C942        C  0.00551605  0.79371735  0.45778885    -0.17300
C943        C  0.00172184  0.81631618  0.44532630     0.11100
C944        C  0.95919502  0.83154851  0.44097975    -0.06100
C945        C  0.92111300  0.82179221  0.44901438    -0.17300
C946        C  0.92466280  0.79742356  0.46131441     0.11100
S947        S  0.05294407  0.82765888  0.43593020    -0.32300
S948        S  0.87471013  0.78826051  0.47154586    -0.32300
H949        H  0.84350821  0.80023878  0.46142588     0.29100
H950        H  0.03345187  0.82802018  0.42289889     0.29100
H951        H  0.03873779  0.78370284  0.46109727     0.19700
H952        H  0.88884276  0.83517181  0.44592607     0.19700
C953        C  0.03022650  0.61439703  0.46439989    -0.06100
C954        C  0.00742939  0.57379783  0.46155470    -0.17300
C955        C  0.01785029  0.54790985  0.44992205     0.11100
C956        C  0.05355845  0.56123003  0.44116363    -0.06100
C957        C  0.07591817  0.60202601  0.44382190    -0.17300
C958        C  0.06359329  0.62933095  0.45498510     0.11100
S959        S  0.87429965  0.04957138  0.45003487    -0.32300
S960        S  0.08843820  0.68479068  0.45583443    -0.32300
H961        H  0.04687768  0.70559869  0.45859884     0.29100
H962        H  0.87356457  0.04746757  0.43567979     0.29100
H963        H  0.98081020  0.56237967  0.46833094     0.19700
H964        H  0.10256342  0.61309967  0.43699794     0.19700
C965        C  0.95868187  0.77380367  0.53110090    -0.06100
C966        C  0.91797796  0.79781169  0.53206685    -0.17300
C967        C  0.90819424  0.82532133  0.54346384     0.11100
C968        C  0.93983041  0.82941567  0.55416298    -0.06100
C969        C  0.97924507  0.80349540  0.55354591    -0.17300
C970        C  0.98853638  0.77530703  0.54234418     0.11100
S971        S  0.85574992  0.85594067  0.54352191    -0.32300
S972        S  0.03864964  0.74127505  0.54316793    -0.32300
H973        H  0.01762557  0.70256956  0.53778065     0.29100
H974        H  0.85200492  0.85998906  0.55780517     0.29100
H975        H  0.89423533  0.79623579  0.52371651     0.19700
H976        H  0.00354205  0.80610079  0.56173237     0.19700
C977        C  0.03431256  0.55761526  0.55278799    -0.06100
C978        C  0.06863048  0.58580378  0.54802416    -0.17300
C979        C  0.06439817  0.60949221  0.53575245     0.11100
C980        C  0.02372015  0.60594273  0.52819979    -0.06100
C981        C  0.98944956  0.57719264  0.53310391    -0.17300
C982        C  0.99436597  0.55307940  0.54525567     0.11100
S983        S  0.11238701  0.64221982  0.52998854    -0.32300
S984        S  0.86364979  0.05725235  0.54494367    -0.32300
H985        H  0.86316995  0.05428455  0.55927775     0.29100
H986        H  0.13744482  0.64013339  0.54212508     0.29100
H987        H  0.09979775  0.58736050  0.55368950     0.19700
H988        H  0.95819050  0.57377172  0.52755193     0.19700
C989        C  0.96199065  0.80292305  0.65195985    -0.06100
C990        C  0.99672596  0.80280483  0.64220555    -0.17300
C991        C  0.99013313  0.82013375  0.62913491     0.11100
C992        C  0.94785657  0.83847326  0.62568241    -0.06100
C993        C  0.91285058  0.83801435  0.63540696    -0.17300
C994        C  0.91964594  0.82082278  0.64853856     0.11100
S995        S  0.03805807  0.82129731  0.61776479    -0.32300
S996        S  0.34457129  0.82105437  0.65721167    -0.32300
H997        H  0.36737833  0.81736357  0.66969704     0.29100
H998        H  0.01371455  0.81777985  0.60558382     0.29100
H999        H  0.02891044  0.78780397  0.64471294     0.19700
H1000       H  0.88089945  0.85363931  0.63299332     0.19700
C1001       C  0.04394836  0.55917363  0.62491796    -0.06100
C1002       C  0.06593144  0.59904781  0.62868507    -0.17300
C1003       C  0.05822124  0.61852134  0.64148469     0.11100
C1004       C  0.02768191  0.59775413  0.65068877    -0.06100
C1005       C  0.00518107  0.55823504  0.64683493    -0.17300
C1006       C  0.01253651  0.53904754  0.63397891     0.11100
S1007       S  0.08792489  0.67018091  0.64540343    -0.32300
S1008       S  0.86241497  0.05659258  0.63230924    -0.32300
H1009       H  0.86340020  0.06065625  0.61799346     0.29100
H1010       H  0.08992155  0.66333461  0.65958687     0.29100
H1011       H  0.09050260  0.61402825  0.62182755     0.19700
H1012       H  0.98066988  0.54321504  0.65370587     0.19700
C1013       C  0.51206007  0.82542884  0.71745827    -0.06100
C1014       C  0.47624268  0.85636845  0.71819670    -0.17300
C1015       C  0.47972247  0.89867251  0.72491460     0.11100
C1016       C  0.51978584  0.91064540  0.73224350    -0.06100
C1017       C  0.06342312  0.88450217  0.73413933    -0.17300
C1018       C  0.06370864  0.84344336  0.72670490     0.11100
S1019       S  0.43109122  0.93531917  0.72425268    -0.32300
S1020       S  0.11627744  0.81307019  0.72565391    -0.32300
H1021       H  0.10915115  0.79345380  0.71275154     0.29100
H1022       H  0.40397663  0.90856761  0.71570224     0.29100
H1023       H  0.44519703  0.84734314  0.71313494     0.19700
H1024       H  0.09521263  0.89474000  0.73837028     0.19700
C1025       C  0.52837486  0.57922128  0.71901063    -0.06100
C1026       C  0.08159159  0.55619627  0.72325898    -0.17300
C1027       C  0.05752300  0.01224597  0.72736094     0.11100
C1028       C  0.51935874  0.99676470  0.73256061    -0.06100
C1029       C  0.49783260  0.52210757  0.73463820    -0.17300
C1030       C  0.49226261  0.56152928  0.72676536     0.11100
S1031       S  0.10851788  0.97927733  0.72578878    -0.32300
S1032       S  0.43697789  0.58679881  0.72692081    -0.32300
H1033       H  0.43805896  0.60372030  0.71353051     0.29100
H1034       H  0.13591717  0.01319731  0.72005785     0.29100
H1035       H  0.11201695  0.56818716  0.71833216     0.19700
H1036       H  0.46808724  0.51034056  0.73985123     0.19700
C1037       C  0.39687863  0.95777726  0.76824994    -0.06100
C1038       C  0.41164214  0.91633665  0.76283845    -0.17300
C1039       C  0.45371787  0.91171479  0.75604007     0.11100
C1040       C  0.48079171  0.95097969  0.75303840    -0.06100
C1041       C  0.46863703  0.99041204  0.76044749    -0.17300
C1042       C  0.42708573  0.99481567  0.76738593     0.11100
S1043       S  0.47447655  0.85445704  0.75400065    -0.32300
S1044       S  0.43274371  0.53647644  0.77921533    -0.32300
H1045       H  0.38588679  0.53044941  0.77969289     0.29100
H1046       H  0.43305095  0.83196639  0.75557177     0.29100
H1047       H  0.39151074  0.88661072  0.76497367     0.19700
H1048       H  0.49002422  0.01986757  0.75992177     0.19700
C1049       C  0.06590682  0.95915742  0.75537232    -0.06100
C1050       C  0.08211925  0.91979856  0.76197935    -0.17300
C1051       C  0.12484019  0.91765915  0.76817806     0.11100
C1052       C  0.15145413  0.95712803  0.76956931    -0.06100
C1053       C  0.13334713  0.99773181  0.76471893    -0.17300
C1054       C  0.09093473  0.99989136  0.75823440     0.11100
S1055       S  0.14268090  0.86349868  0.77465506    -0.32300
S1056       S  0.09183114  0.55587713  0.75913790    -0.32300
H1057       H  0.13399377  0.57736355  0.75812326     0.29100
H1058       H  0.18906149  0.87280156  0.77435726     0.29100
H1059       H  0.06281806  0.88892545  0.76146733     0.19700
H1060       H  0.15127056  0.02876735  0.76699232     0.19700
C1061       C  0.41262701  0.94560155  0.86575356    -0.06100
C1062       C  0.42762524  0.98419109  0.85868930    -0.17300
C1063       C  0.41271085  0.99367775  0.84548518     0.11100
C1064       C  0.38065210  0.96507598  0.83938264    -0.06100
C1065       C  0.36599711  0.92621308  0.84634318    -0.17300
C1066       C  0.38202915  0.91591570  0.85937458     0.11100
S1067       S  0.43580913  0.04249521  0.83693863    -0.32300
S1068       S  0.36463537  0.86317071  0.86694025    -0.32300
H1069       H  0.36660444  0.87816378  0.88055054     0.29100
H1070       H  0.42783812  0.02750222  0.82352912     0.29100
H1071       H  0.45288244  0.00587040  0.86326775     0.19700
H1072       H  0.34116977  0.90425883  0.84166995     0.19700
C1073       C  0.13240497  0.97291785  0.86687198    -0.06100
C1074       C  0.16552077  0.94238675  0.86251663    -0.17300
C1075       C  0.18579223  0.94669018  0.84964511     0.11100
C1076       C  0.17310016  0.98264966  0.84091680    -0.06100
C1077       C  0.14109859  0.01404782  0.84546801    -0.17300
C1078       C  0.12072088  0.00968242  0.85833255     0.11100
S1079       S  0.22794885  0.90540177  0.84496126    -0.32300
S1080       S  0.07886043  0.05128529  0.86305066    -0.32300
H1081       H  0.07917529  0.04344047  0.87720431     0.29100
H1082       H  0.21947381  0.90608448  0.83085224     0.29100
H1083       H  0.17387870  0.91368201  0.86888567     0.19700
H1084       H  0.13254452  0.04254108  0.83904370     0.19700
C1085       C  0.39391152  0.95198775  0.22220921    -0.06100
C1086       C  0.41010236  0.99127151  0.22859962    -0.17300
C1087       C  0.45176474  0.99247214  0.23562034     0.11100
C1088       C  0.47697164  0.95149352  0.23767111    -0.06100
C1089       C  0.46359324  0.91439852  0.22941676    -0.17300
C1090       C  0.42198984  0.91327303  0.22249317     0.11100
S1091       S  0.49120209  0.53677013  0.24017610    -0.32300
S1092       S  0.40591896  0.86043036  0.21462777    -0.32300
H1093       H  0.35928804  0.86744615  0.21583438     0.29100
H1094       H  0.44859027  0.55737457  0.23972467     0.29100
H1095       H  0.39102080  0.02210784  0.22727665     0.19700
H1096       H  0.48342824  0.88378121  0.22952040     0.19700
C1097       C  0.14796157  0.95746951  0.22515847    -0.06100
C1098       C  0.13292693  0.91612092  0.23052365    -0.17300
C1099       C  0.08990662  0.91116492  0.23677418     0.11100
C1100       C  0.06157354  0.95002874  0.23920087    -0.06100
C1101       C  0.07490441  0.98957657  0.23208925    -0.17300
C1102       C  0.11744412  0.99425900  0.22576659     0.11100
S1103       S  0.06934121  0.85362794  0.23804544    -0.32300
S1104       S  0.15229910  0.54244334  0.21357523    -0.32300
H1105       H  0.17716894  0.04433375  0.21867449     0.29100
H1106       H  0.11160526  0.83227049  0.23839938     0.29100
H1107       H  0.15326025  0.88644376  0.22849825     0.19700
H1108       H  0.05317511  0.01882980  0.23230956     0.19700
C1109       C  0.38782129  0.43998560  0.96455339    -0.06100
C1110       C  0.35082901  0.91312149  0.95524239    -0.17300
C1111       C  0.37395643  0.90886160  0.94283481     0.11100
C1112       C  0.43478719  0.42507617  0.93968175    -0.06100
C1113       C  0.43874962  0.46640500  0.94669393    -0.17300
C1114       C  0.41604892  0.47429248  0.95910437     0.11100
S1115       S  0.36949326  0.85581567  0.93377456    -0.32300
S1116       S  0.42596826  0.52709800  0.96802125    -0.32300
H1117       H  0.45694500  0.54565788  0.95865780     0.29100
H1118       H  0.37062119  0.87471431  0.92063235     0.29100
H1119       H  0.33044653  0.88490487  0.95867449     0.19700
H1120       H  0.46129403  0.49189316  0.94261632     0.19700
C1121       C  0.21494182  0.47872734  0.96434716    -0.06100
C1122       C  0.19045971  0.51908684  0.96285949    -0.17300
C1123       C  0.16446755  0.52703024  0.95117324     0.11100
C1124       C  0.16235561  0.49381397  0.94076273    -0.06100
C1125       C  0.16234565  0.92258096  0.94135680    -0.17300
C1126       C  0.18659252  0.91954402  0.95352819     0.11100
S1127       S  0.13333815  0.57926251  0.95031628    -0.32300
S1128       S  0.22809094  0.87549378  0.95454335    -0.32300
H1129       H  0.20404617  0.85225836  0.96478011     0.29100
H1130       H  0.13149730  0.58112019  0.93597074     0.29100
H1131       H  0.19092922  0.54425166  0.97093881     0.19700
H1132       H  0.16741541  0.89728985  0.93345003     0.19700
C1133       C  0.40516519  0.97376052  0.12537765    -0.06100
C1134       C  0.41392956  0.01419330  0.13249483    -0.17300
C1135       C  0.39584736  0.02207411  0.14554730     0.11100
C1136       C  0.36843346  0.98856850  0.15162843    -0.06100
C1137       C  0.35925183  0.94851064  0.14441117    -0.17300
C1138       C  0.37713850  0.94082921  0.13139503     0.11100
S1139       S  0.45393756  0.52028099  0.15190394    -0.32300
S1140       S  0.36600997  0.88694807  0.12342678    -0.32300
H1141       H  0.36823070  0.90279313  0.10992231     0.29100
H1142       H  0.43203825  0.51876150  0.16462553     0.29100
H1143       H  0.47600429  0.47623297  0.12706208     0.19700
H1144       H  0.33743114  0.92316167  0.14894218     0.19700
C1145       C  0.12250668  0.96621442  0.12741977    -0.06100
C1146       C  0.15446633  0.93529330  0.13211628    -0.17300
C1147       C  0.17252817  0.93940354  0.14524649     0.11100
C1148       C  0.15864043  0.97536366  0.15390305    -0.06100
C1149       C  0.12642402  0.00607138  0.14923976    -0.17300
C1150       C  0.10853257  0.00206035  0.13609917     0.11100
S1151       S  0.21421234  0.89843859  0.15027097    -0.32300
S1152       S  0.06743392  0.04338420  0.13092153    -0.32300
H1153       H  0.08104251  0.04402974  0.11712838     0.29100
H1154       H  0.20402350  0.89938425  0.16430035     0.29100
H1155       H  0.16415951  0.90692672  0.12570336     0.19700
H1156       H  0.11670818  0.03444635  0.15564525     0.19700
C1157       C  0.43580060  0.42156062  0.05328269    -0.06100
C1158       C  0.37568347  0.93134201  0.05117783    -0.17300
C1159       C  0.34959536  0.92792761  0.03939849     0.11100
C1160       C  0.38441443  0.43096702  0.02913430    -0.06100
C1161       C  0.41602313  0.46408619  0.03293832    -0.17300
C1162       C  0.44110452  0.46015739  0.04494017     0.11100
S1163       S  0.31119542  0.88079228  0.03854690    -0.32300
S1164       S  0.47971226  0.50537457  0.04897969    -0.32300
H1165       H  0.47908116  0.49905569  0.06321205     0.29100
H1166       H  0.27485965  0.90764646  0.03435551     0.29100
H1167       H  0.37413092  0.90462757  0.05874025     0.19700
H1168       H  0.42112791  0.49360106  0.02656618     0.19700
C1169       C  0.16014688  0.47976307  0.05374235    -0.06100
C1170       C  0.15006743  0.92145390  0.05003067    -0.17300
C1171       C  0.17128103  0.91727683  0.03729887     0.11100
C1172       C  0.20907987  0.46726061  0.02903155    -0.06100
C1173       C  0.19816075  0.51090544  0.03383877    -0.17300
C1174       C  0.17390518  0.51754142  0.04599338     0.11100
S1175       S  0.18227375  0.86035974  0.03153811    -0.32300
S1176       S  0.16064154  0.57505734  0.05077686    -0.32300
H1177       H  0.15402986  0.56747946  0.06478723     0.29100
H1178       H  0.15982483  0.86650369  0.01905018     0.29100
H1179       H  0.14158676  0.89114103  0.05571544     0.19700
H1180       H  0.20847098  0.54041187  0.02806519     0.19700
N1181       N  0.51840377  0.95293141  0.06880178    -0.36600
N1182       N  0.97317184  0.48612855  0.08953936    -0.57200
N1183       N  0.04204185  0.48234234  0.10999974    -0.36600
N1184       N  0.61833405  0.39754542  0.09001914    -0.57200
C1185       C  0.98226204  0.95814736  0.06121074     0.27000
C1186       C  0.55363004  0.93771423  0.06127702     0.27000
C1187       C  0.00511162  0.47535888  0.11781314     0.27000
C1188       C  0.58192076  0.38294744  0.11697598     0.27000
C1189       C  0.92182241  0.96789078  0.07855238     0.35600
C1190       C  0.94687822  0.49357750  0.10062710     0.35600
C1191       C  0.61338094  0.94612185  0.07871707     0.35600
C1192       C  0.64173299  0.40803313  0.10141345     0.35600
C1193       C  0.99668439  0.94465181  0.04833244    -0.21900
C1194       C  0.53877995  0.92426705  0.04847354    -0.21900
C1195       C  0.01765929  0.45928378  0.13054797    -0.21900
C1196       C  0.56779283  0.36246253  0.12897095    -0.21900
C1197       C  0.87895597  0.97970196  0.08293247    -0.23000
C1198       C  0.90372354  0.50492446  0.09663988    -0.22900
C1199       C  0.65614320  0.95800567  0.08306735    -0.23000
C1200       C  0.68316670  0.42615595  0.09789854    -0.22900
C1201       C  0.93666893  0.96527459  0.06483748    -0.18300
C1202       C  0.59938821  0.94102895  0.06502425    -0.18300
C1203       C  0.62516453  0.40058906  0.11478309    -0.18300
C1204       C  0.96078306  0.48705091  0.11423868    -0.18300
H1205       H  0.97622038  0.93647727  0.03954723     0.14600
H1206       H  0.55887222  0.91163997  0.04002663     0.14600
H1207       H  0.99623825  0.45171874  0.13922366     0.14600
H1208       H  0.58847326  0.35226997  0.13749277     0.14600
H1209       H  0.85078138  0.98958540  0.07665337     0.12900
H1210       H  0.87505908  0.51188526  0.10318387     0.12900
H1211       H  0.68517219  0.96547221  0.07673085     0.12900
H1212       H  0.70928656  0.43754695  0.10476662     0.12900
H1213       H  0.52048428  0.97037274  0.07799738     0.26200
H1214       H  0.04316904  0.50042394  0.10093830     0.26200
O1215       O  0.76097188  0.40723852  0.98062881    -0.72900
O1216       O  0.84703469  0.42555091  0.01182502    -0.73900
O1217       O  0.75681513  0.40054661  0.01026339    -0.62500
O1218       O  0.85117355  0.43172857  0.98267714    -0.71000
O1219       O  0.81227838  0.98500851  0.98115178    -0.70500
O1220       O  0.71862215  0.97495530  0.01064624    -0.61800
O1221       O  0.81180157  0.98492037  0.01082593    -0.74300
O1222       O  0.71885565  0.97478591  0.98124817    -0.73100
Cu1223     Cu  0.80460411  0.41376400  0.99630004     1.04600
Cu1224     Cu  0.76521121  0.98247355  0.99597301     1.04300
C1225       C  0.70916288  0.93579255  0.97637085     0.93300
C1226       C  0.82889893  0.94919916  0.01600264     0.92400
C1227       C  0.70984720  0.93671604  0.01614275     0.84500
C1228       C  0.82842584  0.94891512  0.97584850     0.90800
N1229       N  0.71990595  0.45446983  0.19031362    -0.36600
N1230       N  0.79276866  0.45238589  0.21033153    -0.57200
N1231       N  0.85551831  0.48307863  0.18889894    -0.36600
N1232       N  0.78210363  0.48363741  0.16966758    -0.57200
C1233       C  0.69894265  0.43572599  0.20115776     0.27000
C1234       C  0.69739984  0.44134410  0.17893449     0.27000
C1235       C  0.88541372  0.46962002  0.19844767     0.27000
C1236       C  0.87807535  0.48699597  0.17685564     0.27000
C1237       C  0.75657952  0.45146523  0.21900485     0.35600
C1238       C  0.83064426  0.45905715  0.21791062     0.35600
C1239       C  0.74413885  0.48299421  0.16228588     0.35600
C1240       C  0.81317871  0.50470678  0.16197473     0.35600
C1241       C  0.66179850  0.41134114  0.19668472    -0.21900
C1242       C  0.66134097  0.41425253  0.18261793    -0.21900
C1243       C  0.92792154  0.46706741  0.19239868    -0.21900
C1244       C  0.92307851  0.47731404  0.17880778    -0.21900
C1245       C  0.77178324  0.45699797  0.23227432    -0.23000
C1246       C  0.81840516  0.46110710  0.23160383    -0.22900
C1247       C  0.75053699  0.50509178  0.14995666    -0.23000
C1248       C  0.79433178  0.51927467  0.14980828    -0.22900
C1249       C  0.71062627  0.44319233  0.21500190    -0.18300
C1250       C  0.70741962  0.45512477  0.16541616    -0.18300
C1251       C  0.85949884  0.50012853  0.16417018    -0.18300
C1252       C  0.87595727  0.46212462  0.21258070    -0.18300
H1253       H  0.63760361  0.39316357  0.20289151     0.14600
H1254       H  0.63658456  0.39928661  0.17590360     0.14600
H1255       H  0.95964719  0.45907836  0.19714496     0.14600
H1256       H  0.94986196  0.47831552  0.17126823     0.14600
H1257       H  0.75150150  0.45726271  0.24149515     0.12900
H1258       H  0.84067490  0.46571423  0.24021113     0.12900
H1259       H  0.72708514  0.50821016  0.14159593     0.12900
H1260       H  0.81133296  0.53493972  0.14122826     0.12900
H1261       H  0.74521883  0.47875957  0.19100161     0.26200
H1262       H  0.82231506  0.49263835  0.19075698     0.26200
N1263       N  0.01869596  0.94938792  0.92287136    -0.36600
N1264       N  0.97577931  0.48634153  0.90493596    -0.57200
N1265       N  0.04479041  0.48009938  0.88500485    -0.36600
N1266       N  0.61800036  0.41859072  0.90329159    -0.57200
C1267       C  0.98200021  0.93673704  0.93011886     0.27000
C1268       C  0.55209072  0.92084518  0.93125291     0.27000
C1269       C  0.00873762  0.46745624  0.87756829     0.27000
C1270       C  0.58438458  0.40176841  0.87610275     0.27000
C1271       C  0.92382039  0.95416770  0.91309003     0.35600
C1272       C  0.94955535  0.49086938  0.89377600     0.35600
C1273       C  0.61311986  0.93229308  0.91418782     0.35600
C1274       C  0.63955066  0.43369228  0.89199768     0.35600
C1275       C  0.99503133  0.91687058  0.94228239    -0.21900
C1276       C  0.53680486  0.90694031  0.94398459    -0.21900
C1277       C  0.02273890  0.44529576  0.86578764    -0.21900
C1278       C  0.57319425  0.38059121  0.86392842    -0.21900
C1279       C  0.88174460  0.96800840  0.90874385    -0.23000
C1280       C  0.90611788  0.50204928  0.89767594    -0.22900
C1281       C  0.65545059  0.94654192  0.90996690    -0.23000
C1282       C  0.67743093  0.45809275  0.89564503    -0.22900
C1283       C  0.93727579  0.94756894  0.92673776    -0.18300
C1284       C  0.59786084  0.92835850  0.92785884    -0.18300
C1285       C  0.62495974  0.42449885  0.87856731    -0.18300
C1286       C  0.96415686  0.48063469  0.88034973    -0.18300
H1287       H  0.97345658  0.90421887  0.95036343     0.14600
H1288       H  0.55689407  0.89722131  0.95268696     0.14600
H1289       H  0.00201651  0.43227885  0.85761010     0.14600
H1290       H  0.59517081  0.37377770  0.85530773     0.14600
H1291       H  0.85310535  0.97702767  0.91506438     0.12900
H1292       H  0.87725981  0.50622966  0.89110413     0.12900
H1293       H  0.68314844  0.95696013  0.91639119     0.12900
H1294       H  0.70139324  0.47424040  0.88886186     0.12900
H1295       H  0.01867240  0.97067656  0.91440894     0.26200
H1296       H  0.04467664  0.50324503  0.89302939     0.26200
N1297       N  0.85870087  0.48093990  0.80506496    -0.36600
N1298       N  0.78767054  0.49871568  0.82401814    -0.57200
N1299       N  0.72081874  0.47632385  0.80350562    -0.36600
N1300       N  0.79244003  0.45946268  0.78362946    -0.57200
C1301       C  0.88125660  0.47855310  0.81708308     0.27000
C1302       C  0.88487830  0.46134888  0.79538867     0.27000
C1303       C  0.69669374  0.46965252  0.81516286     0.27000
C1304       C  0.69695161  0.45834583  0.79307553     0.27000
C1305       C  0.82212396  0.51110712  0.83205403     0.35600
C1306       C  0.74992065  0.50557763  0.83133613     0.35600
C1307       C  0.83072604  0.46127499  0.77592469     0.35600
C1308       C  0.75666150  0.46076656  0.77497887     0.35600
C1309       C  0.92226168  0.45738799  0.81497537    -0.21900
C1310       C  0.92473556  0.44684969  0.80127646    -0.21900
C1311       C  0.65668128  0.44811389  0.81207380    -0.21900
C1312       C  0.65630851  0.44191006  0.79813101    -0.21900
C1313       C  0.80603541  0.52841744  0.84434265    -0.23000
C1314       C  0.76016963  0.52478779  0.84389179    -0.22900
C1315       C  0.81918376  0.46253008  0.76222376    -0.23000
C1316       C  0.77249933  0.46217504  0.76162392    -0.22900
C1317       C  0.86654839  0.49664674  0.82977867    -0.18300
C1318       C  0.87569759  0.46034983  0.78118606    -0.18300
C1319       C  0.71020913  0.45814408  0.77909096    -0.18300
C1320       C  0.70945223  0.48314778  0.82849883    -0.18300
H1321       H  0.94807084  0.45093248  0.82247887     0.14600
H1322       H  0.95291189  0.43065624  0.79620092     0.14600
H1323       H  0.63006269  0.43867228  0.81910503     0.14600
H1324       H  0.62918871  0.42634786  0.79250301     0.14600
H1325       H  0.82528733  0.53843095  0.85320853     0.12900
H1326       H  0.73734868  0.53136340  0.85232931     0.12900
H1327       H  0.84202019  0.46347080  0.75357052     0.12900
H1328       H  0.75252090  0.46260466  0.75241256     0.12900
H1329       H  0.82963970  0.49934327  0.80313611     0.26200
H1330       H  0.75025235  0.49493596  0.80246671     0.26200
N1331       N  0.49715784  0.14401168  0.68372395    -0.36600
N1332       N  0.02911270  0.20580876  0.70896616    -0.57200
N1333       N  0.53711669  0.27697484  0.68551131    -0.36600
N1334       N  0.50619360  0.21716873  0.66422880    -0.57200
C1335       C  0.50736375  0.11274421  0.69335738     0.27000
C1336       C  0.48913398  0.12169603  0.67181572     0.27000
C1337       C  0.55423549  0.29780860  0.69657914     0.27000
C1338       C  0.55102136  0.30045465  0.67440253     0.27000
C1339       C  0.02102667  0.16793423  0.71646792     0.35600
C1340       C  0.03170673  0.24174640  0.71772269     0.35600
C1341       C  0.48257903  0.18831199  0.65639094     0.35600
C1342       C  0.50991729  0.25575323  0.65702220     0.35600
C1343       C  0.50452229  0.06990922  0.68746778    -0.21900
C1344       C  0.49316410  0.07560948  0.67394294    -0.21900
C1345       C  0.57860225  0.33565543  0.69248708    -0.21900
C1346       C  0.57729748  0.33675532  0.67845654    -0.21900
C1347       C  0.01972252  0.17982655  0.73020703    -0.23000
C1348       C  0.02568475  0.22643601  0.73097500    -0.22900
C1349       C  0.47077174  0.20890309  0.64418641    -0.23000
C1350       C  0.48842911  0.25160332  0.64455556    -0.22900
C1351       C  0.01664298  0.12281969  0.71104426    -0.18300
C1352       C  0.47805629  0.14181599  0.65908181    -0.18300
C1353       C  0.53670963  0.29271815  0.66088394    -0.18300
C1354       C  0.04373110  0.28703853  0.71380341    -0.18300
H1355       H  0.50947258  0.03756761  0.69237818     0.14600
H1356       H  0.48842280  0.04881310  0.66651781     0.14600
H1357       H  0.59527243  0.36035051  0.69887859     0.14600
H1358       H  0.59207452  0.36262728  0.67202907     0.14600
H1359       H  0.01488241  0.15730553  0.73879448     0.12900
H1360       H  0.02715804  0.24646182  0.74024207     0.12900
H1361       H  0.45314435  0.19405541  0.63562169     0.12900
H1362       H  0.48667305  0.27629331  0.63642785     0.12900
H1363       H  0.49185092  0.17818242  0.68544207     0.26200
H1364       H  0.51258446  0.25206999  0.68582880     0.26200
N1365       N  0.56358071  0.46687776  0.60569678    -0.36600
N1366       N  0.57635483  0.39210569  0.58701069    -0.57200
N1367       N  0.54419561  0.45516678  0.56620017    -0.36600
N1368       N  0.53410525  0.52905047  0.58541552    -0.57200
C1369       C  0.58743878  0.43703667  0.61308571     0.27000
C1370       C  0.56379697  0.50637158  0.61260221     0.27000
C1371       C  0.55922214  0.41972567  0.55871473     0.27000
C1372       C  0.54008091  0.49067749  0.55761052     0.27000
C1373       C  0.57319767  0.36971459  0.59900823     0.35600
C1374       C  0.56328713  0.36290405  0.57716464     0.35600
C1375       C  0.43302415  0.05019191  0.59761791     0.35600
C1376       C  0.43386412  0.04815692  0.57547638     0.35600
C1377       C  0.60491568  0.45841136  0.62453790    -0.21900
C1378       C  0.58959632  0.50230013  0.62428745    -0.21900
C1379       C  0.56537020  0.43289606  0.54525031    -0.21900
C1380       C  0.55328357  0.47767511  0.54454009    -0.21900
C1381       C  0.55926884  0.32555523  0.59674606    -0.23000
C1382       C  0.55339586  0.32110305  0.58281506    -0.22900
C1383       C  0.43453050  0.09473190  0.59326248    -0.23000
C1384       C  0.43524136  0.09345649  0.57922177    -0.22900
C1385       C  0.58178637  0.38997050  0.61184436    -0.18300
C1386       C  0.43618772  0.03632356  0.61138496    -0.18300
C1387       C  0.43728467  0.03196408  0.56189558    -0.18300
C1388       C  0.55966808  0.37443416  0.56322675    -0.18300
H1389       H  0.62283244  0.44269758  0.63287402     0.14600
H1390       H  0.59403924  0.52731520  0.63227357     0.14600
H1391       H  0.57542465  0.41178381  0.53670370     0.14600
H1392       H  0.55251859  0.49773723  0.53531059     0.14600
H1393       H  0.55307259  0.29966357  0.60432625     0.12900
H1394       H  0.54163618  0.29117722  0.57751616     0.12900
H1395       H  0.43643292  0.12488388  0.59954392     0.12900
H1396       H  0.43755959  0.12250863  0.57253891     0.12900
H1397       H  0.54004801  0.45810524  0.59831338     0.26200
H1398       H  0.53060383  0.45297513  0.57597817     0.26200
O1399       O  0.50034744  0.25616456  0.48171573    -0.72900
O1400       O  0.46124301  0.16881360  0.51050296    -0.73900
O1401       O  0.49570236  0.25638014  0.51101096    -0.62500
O1402       O  0.46586841  0.16786461  0.48120568    -0.71000
O1403       O  0.53502360  0.14054519  0.48219683    -0.70500
O1404       O  0.56536956  0.23060834  0.51165517    -0.61800
O1405       O  0.53085820  0.14259823  0.51157911    -0.74300
O1406       O  0.56966434  0.22874070  0.48226006    -0.73100
Cu1407     Cu  0.47845602  0.21329630  0.49605514     1.04600
Cu1408     Cu  0.55264456  0.18469914  0.49694113     1.04300
C1409       C  0.54036911  0.25473354  0.47691696     0.93300
C1410       C  0.49053362  0.14355420  0.51615532     0.92400
C1411       C  0.53453723  0.25602721  0.51657625     0.84500
C1412       C  0.49610376  0.14077246  0.47672455     0.90800
C1413       C  0.54381184  0.45317028  0.74460583    -0.02500
N1414       N  0.55893543  0.44450703  0.42650073    -0.36600
N1415       N  0.60028308  0.38174502  0.40681515    -0.57200
N1416       N  0.58421855  0.44970253  0.38662367    -0.36600
N1417       N  0.54523595  0.51210445  0.40582337    -0.57200
C1418       C  0.57883272  0.41351762  0.43460693     0.27000
C1419       C  0.55076644  0.48164975  0.43427742     0.27000
C1420       C  0.61016016  0.42007496  0.37967246     0.27000
C1421       C  0.58267330  0.48782142  0.37915305     0.29800
C1422       C  0.59212399  0.35341520  0.41732009     0.35600
C1423       C  0.60294038  0.35583013  0.39543029     0.35600
C1424       C  0.47358573  0.04460207  0.41562533     0.35600
C1425       C  0.48634766  0.04347594  0.39380895     0.35600
C1426       C  0.58352657  0.43119441  0.44767058    -0.21900
C1427       C  0.56623068  0.47436682  0.44742569    -0.21900
C1428       C  0.62692765  0.44029065  0.36792082    -0.21900
C1429       C  0.60970478  0.48331632  0.36763263    -0.21900
C1430       C  0.59167934  0.30896998  0.41270331    -0.23000
C1431       C  0.59832564  0.31055377  0.39874681    -0.22900
C1432       C  0.50022982  0.08199578  0.41275322    -0.23000
C1433       C  0.50852342  0.08114822  0.39886357    -0.22900
C1434       C  0.58589599  0.36774090  0.43098640    -0.18300
C1435       C  0.45746189  0.03196839  0.42868758    -0.18300
C1436       C  0.48452659  0.03010117  0.37999193    -0.18300
C1437       C  0.60992289  0.37332348  0.38218869    -0.18300
H1438       H  0.59687801  0.41439542  0.45657232     0.14600
H1439       H  0.56405886  0.49725747  0.45605949     0.14600
H1440       H  0.64690798  0.42485784  0.35990371     0.14600
H1441       H  0.61384218  0.50730026  0.35937710     0.14600
H1442       H  0.58648653  0.27871927  0.41871925     0.12900
H1443       H  0.59935276  0.28188185  0.39183983     0.12900
H1444       H  0.51258690  0.10700749  0.41991456     0.12900
H1445       H  0.52820324  0.10551428  0.39314133     0.12900
H1446       H  0.54566227  0.43799691  0.41690629     0.26200
H1447       H  0.56134286  0.44109188  0.39425883     0.26200
N1448       N  0.56789826  0.11898593  0.30836303    -0.36600
N1449       N  0.03472020  0.20505912  0.28707497    -0.57200
N1450       N  0.58854549  0.25691490  0.30836923    -0.36600
N1451       N  0.59645456  0.18669573  0.32823315    -0.57200
C1452       C  0.02229305  0.11154403  0.29800059     0.27000
C1453       C  0.55840970  0.09734408  0.32024906     0.27000
C1454       C  0.04102621  0.30116648  0.29726930     0.27000
C1455       C  0.58967793  0.28138051  0.32014607     0.27000
C1456       C  0.03097196  0.16739670  0.27902028     0.35600
C1457       C  0.03673572  0.24208701  0.27876438     0.35600
C1458       C  0.59809987  0.14937671  0.33603804     0.35600
C1459       C  0.61400456  0.22049448  0.33575789     0.35600
C1460       C  0.03099874  0.06980933  0.30395374    -0.21900
C1461       C  0.53417432  0.05841656  0.31755174    -0.21900
C1462       C  0.05673414  0.34166778  0.30282728    -0.21900
C1463       C  0.57182133  0.32395938  0.31790343    -0.21900
C1464       C  0.03174589  0.18054668  0.26544506    -0.23000
C1465       C  0.03535406  0.22742816  0.26527887    -0.22900
C1466       C  0.61830322  0.15890733  0.34843190    -0.23000
C1467       C  0.62863968  0.20401930  0.34824879    -0.22900
C1468       C  0.02801910  0.12149317  0.28389444    -0.18300
C1469       C  0.57240562  0.11059851  0.33345939    -0.18300
C1470       C  0.60700814  0.26649084  0.33282263    -0.18300
C1471       C  0.04218087  0.28854427  0.28318844    -0.18300
H1472       H  0.04608207  0.04049621  0.29910675     0.14600
H1473       H  0.52244304  0.03347572  0.32483314     0.14600
H1474       H  0.07117178  0.37043625  0.29768037     0.14600
H1475       H  0.56837154  0.35138991  0.32518675     0.14600
H1476       H  0.03000148  0.15865143  0.25657658     0.12900
H1477       H  0.03723078  0.24828536  0.25622271     0.12900
H1478       H  0.62208133  0.13646103  0.35707178     0.12900
H1479       H  0.64166869  0.22300223  0.35682920     0.12900
H1480       H  0.58890633  0.14676379  0.30709605     0.26200
H1481       H  0.60387756  0.22579075  0.30659364     0.26200
C1482       C  0.04294029  0.45170213  0.24655160    -0.02500
C1483       C  0.04466771  0.32683289  0.27288365    -0.06100
C1484       C  0.00570017  0.33701938  0.26567603    -0.17300
C1485       C  0.00100513  0.37611442  0.25756399     0.11100
C1486       C  0.03799843  0.40828586  0.25622028    -0.06100
C1487       C  0.58131428  0.38880812  0.26751700    -0.17300
C1488       C  0.59149022  0.34836486  0.27445550     0.11100
S1489       S  0.94443219  0.37844810  0.25078253    -0.32300
S1490       S  0.64652142  0.34414513  0.28201007    -0.32300
H1491       H  0.65006287  0.29689069  0.28060294     0.29100
H1492       H  0.93715512  0.42486819  0.25055318     0.29100
H1493       H  0.97728111  0.31422339  0.26682615     0.19700
H1494       H  0.60703784  0.41479984  0.26723883     0.19700
C1495       C  0.02692298  0.08061431  0.27438214    -0.06100
C1496       C  0.98881726  0.05248082  0.27495531    -0.17300
C1497       C  0.01526790  0.50863047  0.26628438     0.11100
C1498       C  0.04919314  0.49395752  0.25676385    -0.06100
C1499       C  0.57026129  0.00516953  0.25965904    -0.17300
C1500       C  0.57872186  0.04468279  0.26739732     0.11100
S1501       S  0.96684351  0.47476646  0.27042489    -0.32300
S1502       S  0.63670373  0.06277876  0.26857687    -0.32300
H1503       H  0.63293493  0.09134088  0.27999406     0.29100
H1504       H  0.95042604  0.50059225  0.28146325     0.29100
H1505       H  0.96087840  0.06342371  0.28129084     0.19700
H1506       H  0.59943213  0.98865767  0.25531754     0.19700
C1507       C  0.60901115  0.34335639  0.37003240    -0.06100
C1508       C  0.64951180  0.33404712  0.36315160    -0.17300
C1509       C  0.64960570  0.31276603  0.35035291     0.11100
C1510       C  0.60858380  0.29822315  0.34461841    -0.06100
C1511       C  0.00398804  0.33623707  0.35239999    -0.17300
C1512       C  0.56776495  0.33004377  0.36406677     0.11100
S1513       S  0.70292442  0.30428219  0.34189386    -0.32300
S1514       S  0.97649620  0.38670800  0.37443094    -0.32300
H1515       H  0.99135290  0.37759952  0.38770100     0.29100
H1516       H  0.68567330  0.30526672  0.32854284     0.29100
H1517       H  0.68106121  0.34520826  0.36752918     0.19700
H1518       H  0.97142586  0.34550206  0.34833910     0.19700
C1519       C  0.50946979  0.05514300  0.36928938    -0.06100
C1520       C  0.54945360  0.03561301  0.36428726    -0.17300
C1521       C  0.57051413  0.05182301  0.35244488     0.11100
C1522       C  0.55136135  0.08886789  0.34554590    -0.06100
C1523       C  0.93737219  0.07589507  0.34604435    -0.17300
C1524       C  0.49070067  0.09246320  0.36245675     0.11100
S1525       S  0.62159092  0.02406329  0.34691046    -0.32300
S1526       S  0.99833782  0.49547199  0.36412464    -0.32300
H1527       H  0.99825605  0.50632200  0.37812569     0.29100
H1528       H  0.62391183  0.04173189  0.33363646     0.29100
H1529       H  0.56341216  0.00636413  0.36940360     0.19700
H1530       H  0.91265945  0.07215687  0.33801716     0.19700
C1531       C  0.55247911  0.28192338  0.46476174    -0.06100
C1532       C  0.59710448  0.29696300  0.46312089    -0.17300
C1533       C  0.61018925  0.32220295  0.45166608     0.11100
C1534       C  0.57775999  0.33370073  0.44180582    -0.06100
C1535       C  0.53382381  0.31719933  0.44312611    -0.17300
C1536       C  0.52088043  0.29090578  0.45433637     0.11100
S1537       S  0.66819378  0.33968089  0.45036631    -0.32300
S1538       S  0.46465890  0.26732248  0.45467867    -0.32300
H1539       H  0.44838927  0.28926828  0.44297014     0.29100
H1540       H  0.66889960  0.34511969  0.43610353     0.29100
H1541       H  0.62191797  0.28921530  0.47083947     0.19700
H1542       H  0.50943506  0.32570822  0.43536646     0.19700
C1543       C  0.48630549  0.11151834  0.46466667    -0.06100
C1544       C  0.45203280  0.12506926  0.45566414    -0.17300
C1545       C  0.44208193  0.10029358  0.44382828     0.11100
C1546       C  0.46721518  0.06115870  0.44069901    -0.06100
C1547       C  0.50093354  0.04708187  0.44968959    -0.17300
C1548       C  0.51084678  0.07165923  0.46153907     0.11100
S1549       S  0.44880238  0.48483373  0.45057668    -0.32300
S1550       S  0.55360175  0.04891181  0.47249295    -0.32300
H1551       H  0.58421618  0.08381298  0.46937550     0.29100
H1552       H  0.45232075  0.47724157  0.43642309     0.29100
H1553       H  0.43286823  0.15548700  0.45778643     0.19700
H1554       H  0.51955453  0.01636463  0.44746634     0.19700
C1555       C  0.54227878  0.28396755  0.52911314    -0.06100
C1556       C  0.50595293  0.30967126  0.53420828    -0.17300
C1557       C  0.50984333  0.33624038  0.54596219     0.11100
C1558       C  0.55151308  0.33895339  0.55274680    -0.06100
C1559       C  0.58764426  0.31273091  0.54803253    -0.17300
C1560       C  0.58329354  0.28452816  0.53655008     0.11100
S1561       S  0.46055242  0.36702964  0.55155612    -0.32300
S1562       S  0.63147659  0.25055173  0.53212139    -0.32300
H1563       H  0.60716676  0.20979973  0.53286900     0.29100
H1564       H  0.47261717  0.37068588  0.56538320     0.29100
H1565       H  0.47378608  0.30908816  0.52906179     0.19700
H1566       H  0.61972354  0.31486930  0.55321018     0.19700
C1567       C  0.44908968  0.06493102  0.55101074    -0.06100
C1568       C  0.49441673  0.07686202  0.54942739    -0.17300
C1569       C  0.50905195  0.10287796  0.53830681     0.11100
C1570       C  0.47751333  0.11646206  0.52829645    -0.06100
C1571       C  0.43173534  0.10605771  0.53030487    -0.17300
C1572       C  0.41719222  0.08097621  0.54159258     0.11100
S1573       S  0.56757287  0.11967723  0.53754041    -0.32300
S1574       S  0.42146237  0.52105364  0.54845349    -0.32300
H1575       H  0.43314521  0.52071614  0.56232746     0.29100
H1576       H  0.58275112  0.09339850  0.54854688     0.29100
H1577       H  0.51840340  0.06507607  0.55690168     0.19700
H1578       H  0.40694634  0.11735787  0.52299241     0.19700
C1579       C  0.55240097  0.32272976  0.64977690    -0.06100
C1580       C  0.58891076  0.30781804  0.64176654    -0.17300
C1581       C  0.60005471  0.32905600  0.62943673     0.11100
C1582       C  0.57319686  0.36510908  0.62479641    -0.06100
C1583       C  0.53718111  0.38031962  0.63299863    -0.17300
C1584       C  0.52697634  0.36024381  0.64549943     0.11100
S1585       S  0.64805663  0.30813434  0.62005473    -0.32300
S1586       S  0.98336140  0.38115288  0.65622363    -0.32300
H1587       H  0.99440371  0.36758797  0.66952246     0.29100
H1588       H  0.66013195  0.35006172  0.61435487     0.29100
H1589       H  0.60803877  0.27854735  0.64498481     0.19700
H1590       H  0.51657043  0.40818074  0.62954280     0.19700
C1591       C  0.44435337  0.07053518  0.62222529    -0.06100
C1592       C  0.48922306  0.08139284  0.62503607    -0.17300
C1593       C  0.50125093  0.10199542  0.63733744     0.11100
C1594       C  0.46753536  0.11292482  0.64706651    -0.06100
C1595       C  0.42229447  0.10393564  0.64399330    -0.17300
C1596       C  0.41038768  0.08273190  0.63169497     0.11100
S1597       S  0.56033996  0.11344898  0.63983100    -0.32300
S1598       S  0.45785220  0.48917338  0.62596161    -0.32300
H1599       H  0.45420191  0.49988181  0.61201111     0.29100
H1600       H  0.55977296  0.11671764  0.65412424     0.29100
H1601       H  0.51541111  0.07110976  0.61792463     0.19700
H1602       H  0.39615378  0.11410461  0.65113087     0.19700
C1603       C  0.04443294  0.32668508  0.72363478    -0.06100
C1604       C  0.00745371  0.35624146  0.72346118    -0.17300
C1605       C  0.00790786  0.39907178  0.73002485     0.11100
C1606       C  0.04616813  0.41331730  0.73785227    -0.06100
C1607       C  0.58525294  0.38470044  0.73233707    -0.17300
C1608       C  0.58510783  0.34199211  0.72588723     0.11100
S1609       S  0.95791437  0.43342580  0.72850579    -0.32300
S1610       S  0.63826811  0.31308865  0.72415152    -0.32300
H1611       H  0.62047112  0.26923076  0.72293256     0.29100
H1612       H  0.92960828  0.40043760  0.72273149     0.29100
H1613       H  0.97821098  0.34603587  0.71766438     0.19700
H1614       H  0.61747620  0.39686216  0.73575917     0.19700
C1615       C  0.01809819  0.08213315  0.72041539    -0.06100
C1616       C  0.55426731  0.05124324  0.71636105    -0.17300
C1617       C  0.57406102  0.51355419  0.72642924     0.11100
C1618       C  0.04365862  0.49943178  0.73798795    -0.06100
C1619       C  0.98136043  0.02611976  0.73505139    -0.17300
C1620       C  0.98015195  0.06728038  0.72784104     0.11100
S1621       S  0.62698742  0.48396181  0.72459840    -0.32300
S1622       S  0.92865156  0.09951608  0.72864646    -0.32300
H1623       H  0.93081468  0.11643618  0.71525903     0.29100
H1624       H  0.64865068  0.51492316  0.71587422     0.29100
H1625       H  0.58221792  0.06055082  0.70980328     0.19700
H1626       H  0.95017666  0.01607515  0.73978790     0.19700
C1627       C  0.91645751  0.45950663  0.77189129    -0.06100
C1628       C  0.93245352  0.41799777  0.76692013    -0.17300
C1629       C  0.97537932  0.41372772  0.76062985     0.11100
C1630       C  0.00220490  0.45340558  0.75782167    -0.06100
C1631       C  0.98813131  0.49312331  0.76475378    -0.17300
C1632       C  0.94564950  0.49716726  0.77105067     0.11100
S1633       S  0.99675020  0.35659087  0.75873850    -0.32300
S1634       S  0.90633383  0.04564650  0.77696824    -0.32300
H1635       H  0.86001913  0.04078976  0.77446653     0.29100
H1636       H  0.95743821  0.33297510  0.76243329     0.29100
H1637       H  0.91229154  0.38818970  0.76890801     0.19700
H1638       H  0.00870716  0.52307922  0.76429397     0.19700
C1639       C  0.58760737  0.45714032  0.75405977    -0.06100
C1640       C  0.60566285  0.41724205  0.75993494    -0.17300
C1641       C  0.64834777  0.41565459  0.76615248     0.11100
C1642       C  0.67240308  0.45592730  0.76878749    -0.06100
C1643       C  0.65258845  0.49664706  0.76467427    -0.17300
C1644       C  0.61093645  0.49827482  0.75768140     0.11100
S1645       S  0.66929918  0.36088018  0.77111473    -0.32300
S1646       S  0.57353648  0.05201926  0.75226407    -0.32300
H1647       H  0.61675429  0.07125082  0.75108278     0.29100
H1648       H  0.71484575  0.37323314  0.77204465     0.29100
H1649       H  0.58769522  0.38569099  0.75891632     0.19700
H1650       H  0.66873604  0.52784730  0.76780125     0.19700
C1651       C  0.93404295  0.48587245  0.86834822    -0.06100
C1652       C  0.93854163  0.52560576  0.86056283    -0.17300
C1653       C  0.91957375  0.52918811  0.84752056     0.11100
C1654       C  0.89529211  0.49230113  0.84209490    -0.06100
C1655       C  0.89090047  0.45259837  0.84983067    -0.17300
C1656       C  0.90961287  0.44908935  0.86287797     0.11100
S1657       S  0.92686494  0.58170124  0.83840400    -0.32300
S1658       S  0.90280300  0.39613102  0.87173264    -0.32300
H1659       H  0.90462613  0.41424680  0.88498811     0.29100
H1660       H  0.92142786  0.56372357  0.82520225     0.29100
H1661       H  0.95841244  0.55347449  0.86450244     0.19700
H1662       H  0.87149948  0.42453571  0.84579626     0.19700
C1663       C  0.64891548  0.44275408  0.86645380    -0.06100
C1664       C  0.68430399  0.41758332  0.86084353    -0.17300
C1665       C  0.70227886  0.42834400  0.84802674     0.11100
C1666       C  0.68477081  0.46541081  0.84060316    -0.06100
C1667       C  0.64937014  0.49070311  0.84621627    -0.17300
C1668       C  0.63131313  0.47985067  0.85905089     0.11100
S1669       S  0.74874998  0.39441768  0.84191487    -0.32300
S1670       S  0.58529901  0.51411518  0.86530910    -0.32300
H1671       H  0.59292444  0.50680666  0.87928563     0.29100
H1672       H  0.74028936  0.39985563  0.82791272     0.29100
H1673       H  0.69705146  0.38848555  0.86630934     0.19700
H1674       H  0.63675370  0.51987165  0.84075861     0.19700
C1675       C  0.91662722  0.45857914  0.22186361    -0.06100
C1676       C  0.93128306  0.49724359  0.22888165    -0.17300
C1677       C  0.97362172  0.49924995  0.23551835     0.11100
C1678       C  0.00117223  0.45922958  0.23660363    -0.06100
C1679       C  0.98930492  0.42387605  0.22751645    -0.17300
C1680       C  0.94709241  0.42185710  0.22096460     0.11100
S1681       S  0.96890263  0.05365240  0.24014602    -0.32300
S1682       S  0.93354771  0.37050245  0.21184617    -0.32300
H1683       H  0.88667684  0.37394595  0.21358771     0.29100
H1684       H  0.93026392  0.07745176  0.23612962     0.29100
H1685       H  0.91063139  0.52728844  0.22821127     0.19700
H1686       H  0.01102382  0.39507250  0.22646459     0.19700
C1687       C  0.67145864  0.44290905  0.22503437    -0.06100
C1688       C  0.65820177  0.40208317  0.23113161    -0.17300
C1689       C  0.61561811  0.39664815  0.23764244     0.11100
C1690       C  0.58623607  0.43499115  0.23973215    -0.06100
C1691       C  0.59791237  0.47374355  0.23194056    -0.17300
C1692       C  0.63980881  0.47866184  0.22521589     0.11100
S1693       S  0.59700786  0.33875691  0.24004504    -0.32300
S1694       S  0.63095194  0.03432156  0.21571501    -0.32300
H1695       H  0.69762879  0.53008490  0.21757035     0.29100
H1696       H  0.63571885  0.31641121  0.23521129     0.29100
H1697       H  0.67995278  0.37310666  0.22965784     0.19700
H1698       H  0.57528784  0.50229589  0.23184649     0.19700
C1699       C  0.85549992  0.95097632  0.96307058    -0.06100
C1700       C  0.89255970  0.44063558  0.95755575    -0.17300
C1701       C  0.91509998  0.44397248  0.94512620     0.11100
C1702       C  0.90446314  0.95054481  0.93820306    -0.06100
C1703       C  0.90855773  0.98678801  0.94745575    -0.17300
C1704       C  0.88447046  0.98747476  0.95985758     0.11100
S1705       S  0.92709624  0.39208121  0.93606251    -0.32300
S1706       S  0.89364826  0.03333244  0.97180487    -0.32300
H1707       H  0.92192629  0.05943855  0.96335531     0.29100
H1708       H  0.92467013  0.41058889  0.92289570     0.29100
H1709       H  0.88235486  0.40725658  0.96091543     0.19700
H1710       H  0.93226788  0.01360917  0.94516001     0.19700
C1711       C  0.68042978  0.93238505  0.96395397    -0.06100
C1712       C  0.65360090  0.96972631  0.96043806    -0.17300
C1713       C  0.62865676  0.97032687  0.94834816     0.11100
C1714       C  0.63008725  0.93279413  0.93938428    -0.06100
C1715       C  0.69736863  0.40575451  0.94061624    -0.17300
C1716       C  0.72454058  0.40776026  0.95226442     0.11100
S1717       S  0.59448412  0.01949406  0.94510283    -0.32300
S1718       S  0.77365332  0.37212844  0.95234557    -0.32300
H1719       H  0.80166820  0.40615434  0.95762364     0.29100
H1720       H  0.59642832  0.01640641  0.93077128     0.29100
H1721       H  0.65197870  0.99891489  0.96715367     0.19700
H1722       H  0.70465825  0.38098045  0.93271716     0.19700
C1723       C  0.92835607  0.49215018  0.12568535    -0.06100
C1724       C  0.92800252  0.53336668  0.13289304    -0.17300
C1725       C  0.90764457  0.53679421  0.14579905     0.11100
C1726       C  0.88769778  0.49810495  0.15165832    -0.06100
C1727       C  0.88739206  0.45721625  0.14433009    -0.17300
C1728       C  0.90683850  0.45403263  0.13136495     0.11100
S1729       S  0.90881145  0.06381554  0.15408671    -0.32300
S1730       S  0.90593860  0.39978996  0.12292334    -0.32300
H1731       H  0.90181093  0.41733905  0.10966779     0.29100
H1732       H  0.91016428  0.04662264  0.16745414     0.29100
H1733       H  0.93635658  0.02808946  0.12823903     0.19700
H1734       H  0.87082928  0.42779682  0.14865372     0.19700
C1735       C  0.64916026  0.41691868  0.12715597    -0.06100
C1736       C  0.68293970  0.39009229  0.13286342    -0.17300
C1737       C  0.69998777  0.39965393  0.14589052     0.11100
C1738       C  0.68242157  0.43648490  0.15354884    -0.06100
C1739       C  0.64798161  0.46269304  0.14794844    -0.17300
C1740       C  0.63194521  0.45397448  0.13478810     0.11100
S1741       S  0.74576925  0.36491479  0.15182486    -0.32300
S1742       S  0.58951075  0.49163300  0.12823805    -0.32300
H1743       H  0.60105221  0.48621882  0.11437750     0.29100
H1744       H  0.73981616  0.37284728  0.16585895     0.29100
H1745       H  0.69548878  0.36104747  0.12723696     0.19700
H1746       H  0.63556052  0.49190656  0.15352866     0.19700
C1747       C  0.90337035  0.96506842  0.05354473    -0.06100
C1748       C  0.90503959  0.44453363  0.05190838    -0.17300
C1749       C  0.87907748  0.43705240  0.04026677     0.11100
C1750       C  0.85555378  0.95293863  0.02880509    -0.06100
C1751       C  0.87768494  0.99395340  0.03166581    -0.17300
C1752       C  0.90139609  0.00035873  0.04386019     0.11100
S1753       S  0.84810428  0.38467886  0.03946348    -0.32300
S1754       S  0.93008528  0.05355476  0.04624456    -0.32300
H1755       H  0.92968835  0.05246556  0.06060785     0.29100
H1756       H  0.80834025  0.40534639  0.03493847     0.29100
H1757       H  0.90820735  0.41788886  0.05943294     0.19700
H1758       H  0.87689969  0.02121314  0.02428718     0.19700
C1759       C  0.63275142  0.94170324  0.05368387    -0.06100
C1760       C  0.68571861  0.37818960  0.04855038    -0.17300
C1761       C  0.70765973  0.38161560  0.03586845     0.11100
C1762       C  0.68075786  0.93544669  0.02862247    -0.06100
C1763       C  0.65922139  0.97585186  0.03259381    -0.17300
C1764       C  0.63550013  0.97930357  0.04489853     0.11100
S1765       S  0.73357644  0.33068062  0.02942660    -0.32300
S1766       S  0.60768160  0.03217422  0.04862912    -0.32300
H1767       H  0.61228236  0.02928356  0.06289206     0.29100
H1768       H  0.71026859  0.33223314  0.01695419     0.29100
H1769       H  0.68468387  0.34580693  0.05372197     0.19700
H1770       H  0.66090380  0.00543725  0.02609803     0.19700
N1771       N  0.54815349  0.40637006  0.06930617    -0.36600
N1772       N  0.94738583  0.95648805  0.08935237    -0.57200
N1773       N  0.01649082  0.94983768  0.10980797    -0.36600
N1774       N  0.58624341  0.93920379  0.08959935    -0.57200
C1775       C  0.00700487  0.47998305  0.06101583     0.27000
C1776       C  0.58498890  0.39685036  0.06166451     0.27000
C1777       C  0.97973571  0.93709819  0.11691035     0.27000
C1778       C  0.54844510  0.93287386  0.11675870     0.27000
C1779       C  0.94722786  0.49347294  0.07850725     0.35600
C1780       C  0.92167375  0.96225283  0.10063747     0.35600
C1781       C  0.64380242  0.41011938  0.07923876     0.35600
C1782       C  0.61087437  0.94774827  0.10087389     0.35600
C1783       C  0.02024951  0.46412454  0.04825901    -0.21900
C1784       C  0.57181988  0.38366028  0.04864851    -0.21900
C1785       C  0.99243741  0.91630117  0.12899656    -0.21900
C1786       C  0.53208309  0.91424950  0.12878483    -0.21900
C1787       C  0.90384384  0.50453003  0.08256997    -0.23000
C1788       C  0.87902299  0.97657419  0.09701580    -0.22900
C1789       C  0.68472775  0.42696691  0.08375816    -0.23000
C1790       C  0.65443231  0.95942085  0.09720004    -0.22900
C1791       C  0.96173810  0.48778937  0.06486246    -0.18300
C1792       C  0.62990360  0.40625942  0.06547588    -0.18300
C1793       C  0.59382305  0.94303668  0.11428599    -0.18300
C1794       C  0.93593193  0.95176079  0.11399277    -0.18300
H1795       H  0.99896105  0.45430442  0.03981306     0.14600
H1796       H  0.59328053  0.37518534  0.04004496     0.14600
H1797       H  0.97079266  0.90425459  0.13713910     0.14600
H1798       H  0.55143121  0.90009642  0.13707767     0.14600
H1799       H  0.87533667  0.51150457  0.07607536     0.12900
H1800       H  0.85078362  0.98300593  0.10377933     0.12900
H1801       H  0.71222360  0.43953819  0.07753581     0.12900
H1802       H  0.68193935  0.96775377  0.10396172     0.12900
H1803       H  0.54821032  0.42320635  0.07864513     0.26200
H1804       H  0.01673539  0.97298858  0.10181671     0.26200
O1805       O  0.72578927  0.90034835  0.98179010    -0.72900
O1806       O  0.82110575  0.91059600  0.01058651    -0.73900
O1807       O  0.72775489  0.90081766  0.01129266    -0.62500
O1808       O  0.81888812  0.91031748  0.98098736    -0.71000
O1809       O  0.83126860  0.50386914  0.98314313    -0.70500
O1810       O  0.73885918  0.47292730  0.01174538    -0.61800
O1811       O  0.82922677  0.49836867  0.01249314    -0.74300
O1812       O  0.74117979  0.47929543  0.98222709    -0.73100
Cu1813     Cu  0.77371942  0.90298332  0.99615547     1.04600
Cu1814     Cu  0.78436275  0.49106668  0.99746189     1.04300
C1815       C  0.73949427  0.44131415  0.97597128     0.93300
C1816       C  0.85028253  0.46455378  0.01742069     0.92400
C1817       C  0.73494898  0.43231993  0.01613005     0.84500
C1818       C  0.85453221  0.47182290  0.97792801     0.90800
N1819       N  0.69934342  0.95784983  0.18976147    -0.36600
N1820       N  0.77037250  0.94921965  0.21046764    -0.57200
N1821       N  0.83678445  0.97248544  0.18958704    -0.36600
N1822       N  0.76533294  0.98172398  0.16983363    -0.57200
C1823       C  0.67675224  0.93834646  0.20017163     0.27000
C1824       C  0.67664596  0.94830482  0.17809970     0.27000
C1825       C  0.86448669  0.95726624  0.19950317     0.27000
C1826       C  0.86000202  0.97087197  0.17759998     0.27000
C1827       C  0.73322970  0.94837470  0.21874777     0.35600
C1828       C  0.80762615  0.95272815  0.21852104     0.35600
C1829       C  0.72825695  0.98748295  0.16227871     0.35600
C1830       C  0.79970383  0.99802146  0.16240173     0.35600
C1831       C  0.63875807  0.91666012  0.19512769    -0.21900
C1832       C  0.63912641  0.92235981  0.18114371    -0.21900
C1833       C  0.90632815  0.94776458  0.19369694    -0.21900
C1834       C  0.90305103  0.95525764  0.17990029    -0.21900
C1835       C  0.74714258  0.95025024  0.23223813    -0.23000
C1836       C  0.79392658  0.95255801  0.23209963    -0.22900
C1837       C  0.73870988  0.00937486  0.15014979    -0.23000
C1838       C  0.78420135  0.01615390  0.15024143    -0.22900
C1839       C  0.68743199  0.94337562  0.21417811    -0.18300
C1840       C  0.68793691  0.96461409  0.16494388    -0.18300
C1841       C  0.84424596  0.98520893  0.16471183    -0.18300
C1842       C  0.85364351  0.95394610  0.21368505    -0.18300
H1843       H  0.61335320  0.89862901  0.20091770     0.14600
H1844       H  0.61411119  0.90983242  0.17407601     0.14600
H1845       H  0.93663674  0.93668984  0.19869031     0.14600
H1846       H  0.92985649  0.95111549  0.17246616     0.14600
H1847       H  0.72587493  0.94907208  0.24124610     0.12900
H1848       H  0.81540644  0.95376477  0.24098856     0.12900
H1849       H  0.71658261  0.01654130  0.14168281     0.12900
H1850       H  0.80402130  0.02918630  0.14181174     0.12900
H1851       H  0.72568816  0.98078305  0.19095141     0.26200
H1852       H  0.80528680  0.98700702  0.19114757     0.26200
N1853       N  0.04594263  0.49431634  0.92583871    -0.36600
N1854       N  0.95034420  0.94468746  0.90222781    -0.57200
N1855       N  0.02246320  0.94881507  0.88245994    -0.36600
N1856       N  0.58791737  0.92169951  0.90320842    -0.57200
C1857       C  0.00940165  0.48389502  0.93348789     0.27000
C1858       C  0.58452223  0.41148180  0.93143102     0.27000
C1859       C  0.98749273  0.93642626  0.87456263     0.27000
C1860       C  0.55366102  0.90916232  0.87587749     0.27000
C1861       C  0.94970725  0.49507599  0.91592668     0.35600
C1862       C  0.92609692  0.95356873  0.89095325     0.35600
C1863       C  0.64115508  0.43413569  0.91414697     0.35600
C1864       C  0.61311303  0.93058583  0.89198574     0.35600
C1865       C  0.02306825  0.46967310  0.94634221    -0.21900
C1866       C  0.57202679  0.39510951  0.94418528    -0.21900
C1867       C  0.00317686  0.92100792  0.86199495    -0.21900
C1868       C  0.53986277  0.88863179  0.86385137    -0.21900
C1869       C  0.90607807  0.50423540  0.91178240    -0.23000
C1870       C  0.88322654  0.96772248  0.89462011    -0.22900
C1871       C  0.67870477  0.45801913  0.90976920    -0.23000
C1872       C  0.65527680  0.94588456  0.89581485    -0.22900
C1873       C  0.96398112  0.48975882  0.92957665    -0.18300
C1874       C  0.62824788  0.42635112  0.92785150    -0.18300
C1875       C  0.59773718  0.92364576  0.87848698    -0.18300
C1876       C  0.94219789  0.94654029  0.87751750    -0.18300
H1877       H  0.00211009  0.45975108  0.95490288     0.14600
H1878       H  0.59377743  0.38791350  0.95274227     0.14600
H1879       H  0.98341616  0.91056442  0.85327499     0.14600
H1880       H  0.56099575  0.87593544  0.85565430     0.14600
H1881       H  0.87713091  0.51073986  0.91825533     0.12900
H1882       H  0.85592963  0.97643665  0.88784524     0.12900
H1883       H  0.70365881  0.47450015  0.91608072     0.12900
H1884       H  0.68287225  0.95532294  0.88914090     0.12900
H1885       H  0.04561022  0.51062603  0.91645566     0.26200
H1886       H  0.02023809  0.96835973  0.89127408     0.26200
N1887       N  0.83704426  0.96761703  0.80302177    -0.36600
N1888       N  0.76682762  0.97736052  0.82288630    -0.57200
N1889       N  0.69954300  0.95904689  0.80248156    -0.36600
N1890       N  0.77002510  0.94998964  0.78167131    -0.57200
C1891       C  0.85987596  0.96178954  0.81484221     0.27000
C1892       C  0.86264231  0.94993710  0.79289937     0.27000
C1893       C  0.67527241  0.95119607  0.81408422     0.27000
C1894       C  0.67434209  0.94596348  0.79167493     0.27000
C1895       C  0.80165339  0.99107177  0.83052845     0.35600
C1896       C  0.72986224  0.98278192  0.83063175     0.35600
C1897       C  0.80777692  0.95503916  0.77383145     0.35600
C1898       C  0.73357933  0.95376887  0.77335541     0.35600
C1899       C  0.90043293  0.94044560  0.81220148    -0.21900
C1900       C  0.90237713  0.93326831  0.79832189    -0.21900
C1901       C  0.63382139  0.93350439  0.81061400    -0.21900
C1902       C  0.63273849  0.93120733  0.79652520    -0.21900
C1903       C  0.78659096  0.00756504  0.84302669    -0.23000
C1904       C  0.74091968  0.00195553  0.84313550    -0.22900
C1905       C  0.79528027  0.96093197  0.76033963    -0.23000
C1906       C  0.74855478  0.96009551  0.76003133    -0.22900
C1907       C  0.84579985  0.97723156  0.82783521    -0.18300
C1908       C  0.85307983  0.95285504  0.77879542    -0.18300
C1909       C  0.68727433  0.94942821  0.77760765    -0.18300
C1910       C  0.68866272  0.96208064  0.82763697    -0.18300
H1911       H  0.92630805  0.93176984  0.81947625     0.14600
H1912       H  0.93015205  0.91787327  0.79283611     0.14600
H1913       H  0.60652622  0.92476311  0.81748862     0.14600
H1914       H  0.60416546  0.91991630  0.79065081     0.14600
H1915       H  0.80668601  0.01843737  0.85162632     0.12900
H1916       H  0.71891536  0.00822888  0.85178497     0.12900
H1917       H  0.81749513  0.96536698  0.75164052     0.12900
H1918       H  0.72796629  0.96366587  0.75101309     0.12900
H1919       H  0.80830267  0.98706807  0.80164971     0.26200
H1920       H  0.72981235  0.97614475  0.80174557     0.26200
N1921       N  0.49390164  0.62969835  0.68582117    -0.36600
N1922       N  0.03154994  0.70408471  0.70786666    -0.57200
N1923       N  0.47183905  0.76669631  0.68617722    -0.36600
N1924       N  0.45280190  0.69534586  0.66785488    -0.57200
C1925       C  0.51992410  0.60777253  0.69496328     0.27000
C1926       C  0.50006540  0.60954966  0.67346612     0.27000
C1927       C  0.49691734  0.79329944  0.69442891     0.27000
C1928       C  0.46549889  0.78960053  0.67430728     0.27000
C1929       C  0.03390408  0.66757917  0.71634179     0.35600
C1930       C  0.02659999  0.74181078  0.71578828     0.35600
C1931       C  0.44735991  0.65732933  0.66051545     0.35600
C1932       C  0.42929106  0.72784942  0.66151970     0.35600
C1933       C  0.54172784  0.57218087  0.68838783    -0.21900
C1934       C  0.53008430  0.57410453  0.67477803    -0.21900
C1935       C  0.50645383  0.83366937  0.68776209    -0.21900
C1936       C  0.48672275  0.83126298  0.67505878    -0.21900
C1937       C  0.03138419  0.68249787  0.72976955    -0.23000
C1938       C  0.02698917  0.72925097  0.72941896    -0.22900
C1939       C  0.41812527  0.66484463  0.64978962    -0.23000
C1940       C  0.40613823  0.70957421  0.65051392    -0.22900
C1941       C  0.04114232  0.62156562  0.71199956    -0.18300
C1942       C  0.47768837  0.62122185  0.66122006    -0.18300
C1943       C  0.44000319  0.77384961  0.66301873    -0.18300
C1944       C  0.02275163  0.78730373  0.71076792    -0.18300
H1945       H  0.56431057  0.54752839  0.69268084     0.14600
H1946       H  0.54143463  0.55114043  0.66684104     0.14600
H1947       H  0.52514813  0.86223494  0.69174207     0.14600
H1948       H  0.48745217  0.85741508  0.66733963     0.14600
H1949       H  0.03315924  0.66191224  0.73887766     0.12900
H1950       H  0.02417003  0.75145660  0.73819683     0.12900
H1951       H  0.40965412  0.64161773  0.64162250     0.12900
H1952       H  0.38684852  0.72743988  0.64289907     0.12900
H1953       H  0.47041265  0.65452011  0.68827645     0.26200
H1954       H  0.45596997  0.73689415  0.68914144     0.26200
N1955       N  0.42663187  0.95398930  0.60804784    -0.36600
N1956       N  0.42082977  0.88216931  0.58761753    -0.57200
N1957       N  0.42183576  0.95070128  0.56614987    -0.36600
N1958       N  0.43263991  0.02187416  0.58673810    -0.57200
C1959       C  0.43475673  0.91726441  0.61588020     0.27000
C1960       C  0.43825680  0.99064392  0.61555336     0.27000
C1961       C  0.42522655  0.91238705  0.55855958     0.27000
C1962       C  0.43498681  0.98562196  0.55809789     0.27000
C1963       C  0.41471691  0.85711924  0.59905043     0.35600
C1964       C  0.40998972  0.85542421  0.57687396     0.35600
C1965       C  0.51979174  0.55198903  0.59656967     0.35600
C1966       C  0.51396775  0.54791920  0.57453805     0.35600
C1967       C  0.45091779  0.93093473  0.62851982    -0.21900
C1968       C  0.45276275  0.97701404  0.62835396    -0.21900
C1969       C  0.43971359  0.92332810  0.54546614    -0.21900
C1970       C  0.44578926  0.96933294  0.54517215    -0.21900
C1971       C  0.40021984  0.81408154  0.59557578    -0.23000
C1972       C  0.39714542  0.81301686  0.58151824    -0.22900
C1973       C  0.49115386  0.58660650  0.59277988    -0.23000
C1974       C  0.48794850  0.58443953  0.57870960    -0.22900
C1975       C  0.42519002  0.87179844  0.61245641    -0.18300
C1976       C  0.53385753  0.54203846  0.60996420    -0.18300
C1977       C  0.52004658  0.53274651  0.56095319    -0.18300
C1978       C  0.41477558  0.86777827  0.56292871    -0.18300
H1979       H  0.46003457  0.91003758  0.63713029     0.14600
H1980       H  0.46393890  0.99794502  0.63677165     0.14600
H1981       H  0.44568858  0.90054142  0.53696831     0.14600
H1982       H  0.45722081  0.98851198  0.53640397     0.14600
H1983       H  0.39312467  0.78629489  0.60244414     0.12900
H1984       H  0.38711673  0.78419459  0.57539704     0.12900
H1985       H  0.47476917  0.61097085  0.59941588     0.12900
H1986       H  0.46811141  0.60651610  0.57232166     0.12900
H1987       H  0.40991531  0.95433121  0.59878614     0.26200
H1988       H  0.40781145  0.95318418  0.57583389     0.26200
O1989       O  0.40284466  0.73260506  0.48009079    -0.72900
O1990       O  0.43900702  0.64041389  0.50872832    -0.73900
O1991       O  0.40581756  0.72962463  0.51004394    -0.62500
O1992       O  0.43464440  0.64236472  0.47923058    -0.71000
O1993       O  0.50440125  0.66883645  0.47850634    -0.70500
O1994       O  0.47652254  0.75352050  0.50982687    -0.61800
O1995       O  0.50897677  0.66543187  0.50763406    -0.74300
O1996       O  0.47291060  0.75756333  0.48045962    -0.73100
Cu1997     Cu  0.41796941  0.68540871  0.49453658     1.04600
Cu1998     Cu  0.49287601  0.71229052  0.49405737     1.04300
C1999       C  0.43362996  0.75849504  0.47526467     0.93300
C2000       C  0.47959835  0.63976609  0.51309307     0.92400
C2001       C  0.43743655  0.75310077  0.51537264     0.84500
C2002       C  0.47377756  0.64287357  0.47373457     0.90800
C2003       C  0.52182614  0.95337200  0.74236566    -0.02500
N2004       N  0.43774366  0.95307697  0.42335722    -0.36600
N2005       N  0.42651866  0.88496244  0.40237130    -0.57200
N2006       N  0.45589526  0.95334292  0.38312789    -0.36600
N2007       N  0.46437440  0.02189514  0.40399517    -0.57200
C2008       C  0.41785190  0.91911476  0.43037861     0.27000
C2009       C  0.43477100  0.99071101  0.43120401     0.27000
C2010       C  0.43889270  0.92151621  0.37467745     0.27000
C2011       C  0.46118355  0.99129489  0.37566073     0.29800
C2012       C  0.42698568  0.85748998  0.41339532     0.35600
C2013       C  0.43393148  0.85858293  0.39127659     0.35600
C2014       C  0.52121340  0.53121691  0.41605722     0.35600
C2015       C  0.53228427  0.53232269  0.39412255     0.35600
C2016       C  0.40133166  0.93546370  0.44271255    -0.21900
C2017       C  0.41182848  0.98071578  0.44321106    -0.21900
C2018       C  0.43249730  0.93983278  0.36178404    -0.21900
C2019       C  0.44669154  0.98392155  0.36240860    -0.21900
C2020       C  0.43314558  0.81301850  0.40925354    -0.23000
C2021       C  0.43731311  0.81369590  0.39518020    -0.22900
C2022       C  0.49349459  0.56469401  0.41087761    -0.23000
C2023       C  0.50034303  0.56519426  0.39691800    -0.22900
C2024       C  0.42142844  0.87272672  0.42704038    -0.18300
C2025       C  0.52633573  0.52023566  0.43003132    -0.18300
C2026       C  0.55070774  0.52220998  0.38112878    -0.18300
C2027       C  0.43634686  0.87502054  0.37772213    -0.18300
H2028       H  0.38537538  0.91620527  0.45079462     0.14600
H2029       H  0.40527271  0.00321153  0.45174165     0.14600
H2030       H  0.42081205  0.92275513  0.35267750     0.14600
H2031       H  0.44783755  0.00739469  0.35394096     0.14600
H2032       H  0.43452583  0.78330957  0.41567587     0.12900
H2033       H  0.44255737  0.78465028  0.38859807     0.12900
H2034       H  0.47069844  0.58635288  0.41655125     0.12900
H2035       H  0.48409307  0.58741687  0.38969657     0.12900
H2036       H  0.45904879  0.94884593  0.41499605     0.26200
H2037       H  0.47058861  0.94734802  0.39255241     0.26200
N2038       N  0.51968673  0.62329206  0.30615250    -0.36600
N2039       N  0.04749620  0.70197754  0.28527643    -0.57200
N2040       N  0.49302378  0.75956228  0.30519066    -0.36600
N2041       N  0.48302689  0.68867981  0.32506154    -0.57200
C2042       C  0.06986632  0.60955139  0.29451832     0.27000
C2043       C  0.52823213  0.60260469  0.31820598     0.27000
C2044       C  0.02692119  0.79462733  0.29693479     0.27000
C2045       C  0.48445801  0.78453021  0.31661285     0.27000
C2046       C  0.04850867  0.66532270  0.27676103     0.35600
C2047       C  0.03840442  0.73925601  0.27761674     0.35600
C2048       C  0.47986185  0.65110288  0.33274047     0.35600
C2049       C  0.46191047  0.72167812  0.33207884     0.35600
C2050       C  0.09615758  0.57349925  0.29878218    -0.21900
C2051       C  0.55902685  0.56802150  0.31616539    -0.21900
C2052       C  0.02735835  0.83778864  0.30272289    -0.21900
C2053       C  0.49427011  0.82948709  0.31407601    -0.21900
C2054       C  0.04095682  0.67963162  0.26350211    -0.23000
C2055       C  0.03540297  0.72629078  0.26400436    -0.22900
C2056       C  0.45510058  0.65967721  0.34449662    -0.23000
C2057       C  0.44382684  0.70448454  0.34411746    -0.22900
C2058       C  0.05936685  0.61992588  0.28082691    -0.18300
C2059       C  0.50764988  0.61320830  0.33086586    -0.18300
C2060       C  0.46697757  0.76801972  0.32918180    -0.18300
C2061       C  0.03360518  0.78470548  0.28278467    -0.18300
H2062       H  0.11438510  0.54974025  0.29239464     0.14600
H2063       H  0.57221142  0.54501814  0.32373740     0.14600
H2064       H  0.03368365  0.86974322  0.29773729     0.14600
H2065       H  0.49039365  0.85782907  0.32101828     0.14600
H2066       H  0.04077973  0.65881037  0.25438259     0.12900
H2067       H  0.02929983  0.74807131  0.25534064     0.12900
H2068       H  0.44900775  0.63694950  0.35296726     0.12900
H2069       H  0.42724961  0.72278831  0.35230127     0.12900
H2070       H  0.49462847  0.64691337  0.30420925     0.26200
H2071       H  0.48450526  0.72597986  0.30361464     0.26200
C2072       C  0.01809088  0.95275452  0.24904885    -0.02500
C2073       C  0.03138325  0.82465719  0.27317275    -0.06100
C2074       C  0.99055294  0.83336425  0.26675069    -0.17300
C2075       C  0.98127423  0.87428722  0.25990302     0.11100
C2076       C  0.01601586  0.90891760  0.25859770    -0.06100
C2077       C  0.55176868  0.88920502  0.26502483    -0.17300
C2078       C  0.55703972  0.84727235  0.27169275     0.11100
S2079       S  0.92237482  0.87558385  0.25498820    -0.32300
S2080       S  0.60958898  0.83711935  0.28025884    -0.32300
H2081       H  0.60701512  0.78962744  0.27987190     0.29100
H2082       H  0.91462383  0.92123653  0.25280319     0.29100
H2083       H  0.96418357  0.80814126  0.26775864     0.19700
H2084       H  0.58020787  0.91209546  0.26509922     0.19700
C2085       C  0.05594674  0.57973168  0.27129036    -0.06100
C2086       C  0.01863913  0.55111727  0.27292500    -0.17300
C2087       C  0.98662993  0.01002290  0.26825611     0.11100
C2088       C  0.02222584  0.99523538  0.25935419    -0.06100
C2089       C  0.58351046  0.51116638  0.25966346    -0.17300
C2090       C  0.58296320  0.55442241  0.26600763     0.11100
S2091       S  0.93815356  0.97574040  0.27192372    -0.32300
S2092       S  0.63290844  0.58875510  0.26440059    -0.32300
H2093       H  0.62629799  0.61534867  0.27614749     0.29100
H2094       H  0.91217133  0.00826996  0.27890381     0.29100
H2095       H  0.99210698  0.56203396  0.27980721     0.19700
H2096       H  0.61498632  0.50107077  0.25507606     0.19700
C2097       C  0.44239835  0.84351755  0.36600983    -0.06100
C2098       C  0.48661145  0.83306922  0.36207906    -0.17300
C2099       C  0.49584882  0.81050465  0.34980652     0.11100
C2100       C  0.46005989  0.79935510  0.34091957    -0.06100
C2101       C  0.94932324  0.81745452  0.34569768    -0.17300
C2102       C  0.40659814  0.83175233  0.35727172     0.11100
S2103       S  0.55412788  0.79729890  0.34624474    -0.32300
S2104       S  0.88192918  0.86073450  0.35995946    -0.32300
H2105       H  0.87849345  0.85612330  0.37422229     0.29100
H2106       H  0.54758940  0.76051480  0.33739101     0.29100
H2107       H  0.51426984  0.84313931  0.36859883     0.19700
H2108       H  0.92499800  0.81681115  0.33749079     0.19700
C2109       C  0.53548527  0.54638255  0.36874881    -0.06100
C2110       C  0.55340371  0.58925190  0.36614373    -0.17300
C2111       C  0.54730814  0.61009560  0.35351690     0.11100
C2112       C  0.52099830  0.58851612  0.34338667    -0.06100
C2113       C  0.03732592  0.55443581  0.34610676    -0.17300
C2114       C  0.51047780  0.52394154  0.35844913     0.11100
S2115       S  0.57455704  0.66408203  0.35092996    -0.32300
S2116       S  0.88003827  0.02082822  0.36066970    -0.32300
H2117       H  0.87664719  0.02476145  0.37496511     0.29100
H2118       H  0.57807275  0.66133808  0.33662410     0.29100
H2119       H  0.57410527  0.60562909  0.37378761     0.19700
H2120       H  0.01007814  0.54387039  0.33949926     0.19700
C2121       C  0.42657681  0.78839331  0.46311864    -0.06100
C2122       C  0.46177116  0.81831731  0.45975451    -0.17300
C2123       C  0.46162627  0.84378870  0.44781505     0.11100
C2124       C  0.42495992  0.84068051  0.43875171    -0.06100
C2125       C  0.38911198  0.81155445  0.44201540    -0.17300
C2126       C  0.38934668  0.78546629  0.45410936     0.11100
S2127       S  0.50946359  0.88036377  0.44491638    -0.32300
S2128       S  0.34199404  0.74902544  0.45770918    -0.32300
H2129       H  0.31286671  0.76744738  0.44790894     0.29100
H2130       H  0.50814123  0.87859245  0.43057200     0.29100
H2131       H  0.49061274  0.82166658  0.46640251     0.19700
H2132       H  0.36064011  0.80994270  0.43517816     0.19700
C2133       C  0.48384302  0.61325957  0.46178903    -0.06100
C2134       C  0.46476035  0.56974218  0.46113503    -0.17300
C2135       C  0.47624287  0.53937150  0.45060803     0.11100
C2136       C  0.50863266  0.55215850  0.44065292    -0.06100
C2137       C  0.52634955  0.59613867  0.44105684    -0.17300
C2138       C  0.51321943  0.62708698  0.45115600     0.11100
S2139       S  0.39695913  0.12037713  0.43320416    -0.32300
S2140       S  0.53301279  0.68445861  0.44938429    -0.32300
H2141       H  0.49219851  0.70421880  0.45366456     0.29100
H2142       H  0.38404796  0.07801172  0.42797364     0.29100
H2143       H  0.44125246  0.55901811  0.46899301     0.19700
H2144       H  0.55036105  0.60663648  0.43330922     0.19700
C2145       C  0.42933772  0.77845545  0.52835442    -0.06100
C2146       C  0.38883881  0.80228643  0.53024228    -0.17300
C2147       C  0.38125975  0.82876371  0.54200801     0.11100
C2148       C  0.41478811  0.83161786  0.55219518    -0.06100
C2149       C  0.45375060  0.80545066  0.55073722    -0.17300
C2150       C  0.46132171  0.77899996  0.53906274     0.11100
S2151       S  0.32909169  0.85963588  0.54320366    -0.32300
S2152       S  0.51269693  0.74685209  0.53854822    -0.32300
H2153       H  0.49203529  0.70821736  0.53305763     0.29100
H2154       H  0.32884030  0.86396350  0.55751695     0.29100
H2155       H  0.36351385  0.80142714  0.52232201     0.19700
H2156       H  0.47948931  0.80722129  0.55852665     0.19700
C2157       C  0.50722160  0.56269637  0.54950548    -0.06100
C2158       C  0.54043638  0.59119782  0.54414222    -0.17300
C2159       C  0.53376742  0.61515956  0.53198494     0.11100
C2160       C  0.49168027  0.61151220  0.52514087    -0.06100
C2161       C  0.45847440  0.58277824  0.53068650    -0.17300
C2162       C  0.46579249  0.55832502  0.54268527     0.11100
S2163       S  0.58010172  0.64915858  0.52558757    -0.32300
S2164       S  0.35771205  0.07012672  0.54331481    -0.32300
H2165       H  0.35738058  0.06620974  0.55762378     0.29100
H2166       H  0.61218336  0.63713296  0.53544697     0.29100
H2167       H  0.57243390  0.59326027  0.54934603     0.19700
H2168       H  0.42623537  0.57929827  0.52567853     0.19700
C2169       C  0.43538824  0.80201252  0.65051526    -0.06100
C2170       C  0.47164410  0.80155452  0.64126681    -0.17300
C2171       C  0.46775573  0.81955197  0.62813011     0.11100
C2172       C  0.42663310  0.83914209  0.62402580    -0.06100
C2173       C  0.38997534  0.83881735  0.63318995    -0.17300
C2174       C  0.39384936  0.82050981  0.64634943     0.11100
S2175       S  0.51745033  0.81916645  0.61746890    -0.32300
S2176       S  0.87324443  0.82210253  0.66046203    -0.32300
H2177       H  0.89981214  0.82541608  0.67226531     0.29100
H2178       H  0.49482489  0.81859839  0.60492777     0.29100
H2179       H  0.50310419  0.78599120  0.64424316     0.19700
H2180       H  0.35878476  0.85505022  0.63028946     0.19700
C2181       C  0.51391003  0.56533701  0.62200650    -0.06100
C2182       C  0.53099752  0.60740684  0.62603568    -0.17300
C2183       C  0.52050412  0.62548561  0.63890218     0.11100
C2184       C  0.49220061  0.60105005  0.64797443    -0.06100
C2185       C  0.47371210  0.55978259  0.64371672    -0.17300
C2186       C  0.48381785  0.54203043  0.63077740     0.11100
S2187       S  0.54441157  0.67984854  0.64321621    -0.32300
S2188       S  0.35167359  0.07070971  0.62882678    -0.32300
H2189       H  0.35451889  0.06731720  0.61451764     0.29100
H2190       H  0.55133477  0.67010512  0.65709732     0.29100
H2191       H  0.55417924  0.62525926  0.61937091     0.19700
H2192       H  0.45076986  0.54176049  0.65041563     0.19700
C2193       C  0.02428851  0.82812789  0.72019083    -0.06100
C2194       C  0.98648697  0.85663000  0.72069056    -0.17300
C2195       C  0.98643229  0.89858150  0.72767430     0.11100
C2196       C  0.02450359  0.91239900  0.73563300    -0.06100
C2197       C  0.55688609  0.88066559  0.73020788    -0.17300
C2198       C  0.55336551  0.83890580  0.72319612     0.11100
S2199       S  0.93554308  0.93183792  0.72669259    -0.32300
S2200       S  0.60349245  0.80491630  0.72159158    -0.32300
H2201       H  0.59411975  0.78792367  0.70847734     0.29100
H2202       H  0.91673089  0.90990790  0.71529422     0.29100
H2203       H  0.95661672  0.84600843  0.71526196     0.19700
H2204       H  0.58994172  0.88953374  0.73379774     0.19700
C2205       C  0.04254469  0.58257874  0.72205824    -0.06100
C2206       C  0.56912219  0.55498941  0.71923780    -0.17300
C2207       C  0.55558006  0.00970939  0.72361822     0.11100
C2208       C  0.02031203  0.99812745  0.73577946    -0.06100
C2209       C  0.00448528  0.52686971  0.73659098    -0.17300
C2210       C  0.00340818  0.56681498  0.72873999     0.11100
S2211       S  0.60511715  0.97500500  0.72146641    -0.32300
S2212       S  0.95020507  0.59581050  0.72740871    -0.32300
H2213       H  0.95447082  0.60599356  0.71343047     0.29100
H2214       H  0.63273495  0.00794134  0.71532141     0.29100
H2215       H  0.59705277  0.56812352  0.71331783     0.19700
H2216       H  0.97290500  0.51676891  0.74108945     0.19700
C2217       C  0.89374334  0.95438328  0.76945363    -0.06100
C2218       C  0.91098995  0.91375000  0.76422603    -0.17300
C2219       C  0.95464558  0.91089995  0.75839758     0.11100
C2220       C  0.98041409  0.95128094  0.75577002    -0.06100
C2221       C  0.96528757  0.99017689  0.76296202    -0.17300
C2222       C  0.92247861  0.99257845  0.76923225     0.11100
S2223       S  0.97792843  0.85456314  0.75671334    -0.32300
S2224       S  0.93048193  0.55189833  0.77787021    -0.32300
H2225       H  0.88391372  0.54708892  0.77583888     0.29100
H2226       H  0.94734006  0.83236426  0.76544479     0.29100
H2227       H  0.89138397  0.88323714  0.76572175     0.19700
H2228       H  0.98533617  0.02059245  0.76279364     0.19700
C2229       C  0.56631135  0.95489814  0.75163110    -0.06100
C2230       C  0.58171783  0.91426075  0.75775746    -0.17300
C2231       C  0.62366977  0.91046557  0.76434204     0.11100
C2232       C  0.64954334  0.94939197  0.76719442    -0.06100
C2233       C  0.63311464  0.99089259  0.76247155    -0.17300
C2234       C  0.59244778  0.99463442  0.75501694     0.11100
S2235       S  0.64175119  0.85465079  0.76930105    -0.32300
S2236       S  0.58675548  0.55408264  0.75583553    -0.32300
H2237       H  0.62693739  0.57894937  0.75704318     0.29100
H2238       H  0.68800842  0.86461215  0.76964782     0.29100
H2239       H  0.56211598  0.88374383  0.75675605     0.19700
H2240       H  0.65110519  0.02128877  0.76540072     0.19700
C2241       C  0.91306779  0.95504443  0.86563067    -0.06100
C2242       C  0.91976609  0.99596450  0.85861485    -0.17300
C2243       C  0.90110829  0.00315216  0.84573993     0.11100
C2244       C  0.87423295  0.96901832  0.83989131    -0.06100
C2245       C  0.86754280  0.92812793  0.84687481    -0.17300
C2246       C  0.88688756  0.92056963  0.85962047     0.11100
S2247       S  0.91291946  0.05633680  0.83741605    -0.32300
S2248       S  0.87867956  0.86552019  0.86717777    -0.32300
H2249       H  0.88943456  0.87706872  0.88067106     0.29100
H2250       H  0.89933909  0.04412613  0.82419280     0.29100
H2251       H  0.94132249  0.02177058  0.86299717     0.19700
H2252       H  0.84632608  0.90217894  0.84241444     0.19700
C2253       C  0.62483371  0.93635653  0.86627621    -0.06100
C2254       C  0.65553026  0.90507855  0.86090856    -0.17300
C2255       C  0.67398893  0.91073359  0.84781136     0.11100
C2256       C  0.66122796  0.94835711  0.83972492    -0.06100
C2257       C  0.63043697  0.97957088  0.84511325    -0.17300
C2258       C  0.61261464  0.97432012  0.85829111     0.11100
S2259       S  0.71517315  0.86968311  0.84228518    -0.32300
S2260       S  0.57450568  0.01753004  0.86436947    -0.32300
H2261       H  0.58097575  0.01003283  0.87839254     0.29100
H2262       H  0.70947632  0.87603821  0.82818969     0.29100
H2263       H  0.66418258  0.87539749  0.86681535     0.19700
H2264       H  0.62212010  0.00952711  0.83928712     0.19700
C2265       C  0.89335246  0.95265538  0.22346871    -0.06100
C2266       C  0.90761374  0.99311474  0.22965134    -0.17300
C2267       C  0.94898184  0.99671390  0.23681370     0.11100
C2268       C  0.97648632  0.95725951  0.23894808    -0.06100
C2269       C  0.96510788  0.91933320  0.23077168    -0.17300
C2270       C  0.92333529  0.91548503  0.22401006     0.11100
S2271       S  0.99462229  0.55565419  0.23905124    -0.32300
S2272       S  0.90979873  0.86139877  0.21646849    -0.32300
H2273       H  0.86284948  0.86628331  0.21751027     0.29100
H2274       H  0.95476123  0.57995436  0.23669126     0.29100
H2275       H  0.88726220  0.02295957  0.22805160     0.19700
H2276       H  0.98659195  0.88993984  0.23088439     0.19700
C2277       C  0.64734267  0.94421403  0.22381343    -0.06100
C2278       C  0.63164986  0.90361996  0.22951276    -0.17300
C2279       C  0.58839285  0.89992814  0.23563732     0.11100
C2280       C  0.56094290  0.93943684  0.23775259    -0.06100
C2281       C  0.57531469  0.97849893  0.23056176    -0.17300
C2282       C  0.61750626  0.98153977  0.22399654     0.11100
S2283       S  0.56660917  0.84304699  0.23717455    -0.32300
S2284       S  0.65046569  0.53167996  0.21667384    -0.32300
H2285       H  0.67771322  0.03122131  0.21755726     0.29100
H2286       H  0.60847553  0.82222477  0.23943432     0.29100
H2287       H  0.65163261  0.87344166  0.22787681     0.19700
H2288       H  0.55467303  0.00849100  0.23081660     0.19700
C2289       C  0.88245043  0.47909091  0.96550653    -0.06100
C2290       C  0.85049099  0.91554185  0.95354894    -0.17300
C2291       C  0.87497588  0.91463292  0.94130706     0.11100
C2292       C  0.92995994  0.48655747  0.94058701    -0.06100
C2293       C  0.92031570  0.52530510  0.94837632    -0.17300
C2294       C  0.89621284  0.52224348  0.96074245     0.11100
S2295       S  0.86856989  0.86581205  0.93036877    -0.32300
S2296       S  0.88589573  0.57322895  0.97051773    -0.32300
H2297       H  0.90516043  0.60383348  0.96117477     0.29100
H2298       H  0.91377289  0.86328418  0.92613625     0.29100
H2299       H  0.82771853  0.88779295  0.95574897     0.19700
H2300       H  0.93326095  0.55765387  0.94496478     0.19700
C2301       C  0.71339748  0.43804588  0.96306752    -0.06100
C2302       C  0.67759407  0.46838496  0.96117942    -0.17300
C2303       C  0.65182721  0.46772099  0.94928493     0.11100
C2304       C  0.66055603  0.43483369  0.93911238    -0.06100
C2305       C  0.65731137  0.89580223  0.94265918    -0.17300
C2306       C  0.68216830  0.89497171  0.95478913     0.11100
S2307       S  0.60767622  0.50922750  0.94775241    -0.32300
S2308       S  0.71617890  0.84555139  0.95762921    -0.32300
H2309       H  0.69221564  0.83338387  0.96951753     0.29100
H2310       H  0.61002540  0.51219858  0.93342039     0.29100
H2311       H  0.66941247  0.49292527  0.96905828     0.19700
H2312       H  0.65797263  0.86662602  0.93591943     0.19700
C2313       C  0.90711363  0.96160441  0.12597264    -0.06100
C2314       C  0.91496216  0.00260748  0.13288657    -0.17300
C2315       C  0.89756833  0.01021952  0.14598903     0.11100
C2316       C  0.87144543  0.97635940  0.15227734    -0.06100
C2317       C  0.86339805  0.93549774  0.14533954    -0.17300
C2318       C  0.88085874  0.92777555  0.13227007     0.11100
S2319       S  0.90741838  0.59120244  0.15417326    -0.32300
S2320       S  0.87016286  0.87350793  0.12446590    -0.32300
H2321       H  0.87572256  0.88745154  0.11086167     0.29100
H2322       H  0.90613088  0.57456989  0.16760682     0.29100
H2323       H  0.94530597  0.56249124  0.12866740     0.19700
H2324       H  0.84226698  0.90990360  0.15004141     0.19700
C2325       C  0.62165036  0.95125821  0.12657163    -0.06100
C2326       C  0.65208505  0.91792370  0.13066490    -0.17300
C2327       C  0.67158575  0.91938120  0.14364931     0.11100
C2328       C  0.65961356  0.95438928  0.15290716    -0.06100
C2329       C  0.62852204  0.98720232  0.14889127    -0.17300
C2330       C  0.61028036  0.98661668  0.13577535     0.11100
S2331       S  0.71321178  0.87693540  0.14750203    -0.32300
S2332       S  0.57248351  0.03194308  0.13132564    -0.32300
H2333       H  0.58294407  0.03152351  0.11728713     0.29100
H2334       H  0.70940161  0.87932416  0.16178791     0.29100
H2335       H  0.65990174  0.89009746  0.12381435     0.19700
H2336       H  0.62064163  0.01506095  0.15572711     0.19700
C2337       C  0.92773468  0.48553321  0.05386762    -0.06100
C2338       C  0.88043034  0.92463439  0.05093046    -0.17300
C2339       C  0.85659096  0.91816394  0.03879438     0.11100
C2340       C  0.87701040  0.47069394  0.03000170    -0.06100
C2341       C  0.89879083  0.51231739  0.03221073    -0.17300
C2342       C  0.92341566  0.52032900  0.04412488     0.11100
S2343       S  0.82772319  0.86496705  0.03697657    -0.32300
S2344       S  0.94892118  0.57527115  0.04633188    -0.32300
H2345       H  0.94817238  0.57477261  0.06070407     0.29100
H2346       H  0.78714420  0.88568464  0.03323807     0.29100
H2347       H  0.88239939  0.89722652  0.05824396     0.19700
H2348       H  0.89658788  0.53882797  0.02461472     0.19700
C2349       C  0.66215942  0.41488568  0.05415952    -0.06100
C2350       C  0.65403320  0.90125555  0.04990198    -0.17300
C2351       C  0.67711406  0.89731507  0.03740894     0.11100
C2352       C  0.70760015  0.42352450  0.02871740    -0.06100
C2353       C  0.68446116  0.46032693  0.03463903    -0.17300
C2354       C  0.66175295  0.45642165  0.04711744     0.11100
S2355       S  0.69901891  0.84214468  0.03325110    -0.32300
S2356       S  0.63105128  0.50519558  0.05322766    -0.32300
H2357       H  0.63505049  0.49542080  0.06720397     0.29100
H2358       H  0.67666783  0.84013885  0.02062022     0.29100
H2359       H  0.65032761  0.87175009  0.05636906     0.19700
H2360       H  0.68391577  0.49280130  0.02953704     0.19700
loop_ 
_geom_bond_atom_site_label_1 
_geom_bond_atom_site_label_2 
_geom_bond_distance 
_geom_bond_site_symmetry_2 
_ccdc_geom_bond_type 
N1            C6   1.353       .  A
N1         C1185   1.355   1_455  A
N1           H33   1.039       .  S
N2           C10   1.349       .  A
N2          C599   1.348       .  A
N3            C7   1.346       .  A
N3         C1188   1.347       .  A
N3           H34   1.040       .  S
N4           C12   1.351       .  A
N4          C601   1.350       .  A
C5         N1181   1.353       .  A
C5           C13   1.388       .  A
C5           C21   1.415       .  A
C6           C22   1.417       .  A
C6           C14   1.389       .  A
C7           C15   1.387       .  A
C7           C24   1.403       .  A
C8         N1183   1.348       .  A
C8           C23   1.408       .  A
C8           C16   1.388       .  A
C9          N592   1.346       .  A
C9           C21   1.411       .  A
C9           C17   1.387       .  A
C10          C24   1.411       .  A
C10          C18   1.385       .  A
C11         N594   1.346       .  A
C11          C19   1.388       .  A
C11          C22   1.412       .  A
C12          C20   1.385       .  A
C12          C23   1.412       .  A
C13        C1194   1.371       .  A
C13          H25   1.082       .  S
C14        C1193   1.369   1_455  A
C14          H26   1.082       .  S
C15        C1196   1.372       .  A
C15          H27   1.082       .  S
C16        C1195   1.366       .  A
C16          H28   1.083       .  S
C17         C608   1.381       .  A
C17          H29   1.082   1_565  S
C18         C607   1.382       .  A
C18          H30   1.082       .  S
C19         C610   1.382       .  A
C19          H31   1.082       .  S
C20         C609   1.378       .  A
C20          H32   1.082       .  S
C21         C567   1.480       .  S
C22         C579   1.480       .  S
C23         C555   1.480       .  S
C24         C543   1.480       .  S
O35         Cu43   2.008       .  S
O35         C635   1.278       .  A
O36         Cu43   2.004   1_554  S
O36         C636   1.276       .  A
O37         Cu43   2.002   1_554  S
O37         C637   1.275       .  A
O38         Cu43   1.992       .  S
O38         C638   1.277       .  A
O39         Cu44   2.018       .  S
O39          C48   1.279       .  A
O40         Cu44   2.010   1_554  S
O40          C47   1.280       .  A
O41         Cu44   2.013   1_554  S
O41          C46   1.278       .  A
O42         Cu44   2.005       .  S
O42          C45   1.278       .  A
Cu43       Cu634   2.363       .  S
Cu44       Cu633   2.365       .  S
C45         C531   1.484       .  S
C45         O625   1.278       .  A
C46         C570   1.485       .  S
C46         O626   1.278       .  A
C47         C582   1.492       .  S
C47         O627   1.275       .  A
C48         C519   1.490       .  S
C48         O628   1.278       .  A
N49          C54   1.359       .  A
N49          C53   1.352       .  A
N49          H81   1.038       .  S
N50          C57   1.367       .  A
N50          C58   1.368       .  A
N51          C56   1.361       .  A
N51          C55   1.352       .  A
N51          H82   1.032       .  S
N52          C59   1.340       .  A
N52          C60   1.340       .  A
C53          C61   1.391       .  A
C53          C69   1.422       .  A
C54          C70   1.416       .  A
C54          C62   1.383       .  A
C55          C63   1.395       .  A
C55          C72   1.431       .  A
C56          C71   1.417       .  A
C56          C64   1.378       .  A
C57          C69   1.446       .  A
C57          C65   1.386       .  A
C58          C72   1.450       .  A
C58          C66   1.388       .  A
C59          C67   1.388       .  A
C59          C70   1.397       .  A
C60          C68   1.386       .  A
C60          C71   1.397       .  A
C61          C62   1.377       .  A
C61          H73   1.082       .  S
C62          H74   1.082       .  S
C63          C64   1.375       .  A
C63          H75   1.077       .  S
C64          H76   1.082       .  S
C65          C66   1.392       .  A
C65          H77   1.082       .  S
C66          H78   1.082       .  S
C67          C68   1.365       .  A
C67          H79   1.082       .  S
C68          H80   1.081       .  S
C69         C507   1.524       .  S
C70         C558   1.481       .  S
C71         C546   1.484       .  S
C72         C495   1.524       .  S
N83          C87   1.354       .  A
N83        C1268   1.354       .  A
N83         H115   1.039       .  S
N84          C92   1.349       .  A
N84         C681   1.347       .  A
N85          C89   1.346       .  A
N85        C1270   1.345       .  A
N85         H116   1.039       .  S
N86          C94   1.348       .  A
N86         C683   1.349       .  A
C87          C95   1.387       .  A
C87         C103   1.417       .  A
C88        N1263   1.351       .  A
C88         C104   1.410       .  A
C88          C96   1.387       .  A
C89          C97   1.388       .  A
C89         C106   1.403       .  A
C90        N1265   1.346       .  A
C90         C105   1.405       .  A
C90          C98   1.388       .  A
C91         N674   1.345       .  A
C91         C103   1.410       .  A
C91          C99   1.387       .  A
C92         C106   1.411       .  A
C92         C100   1.385       .  A
C93         N676   1.348       .  A
C93         C101   1.386       .  A
C93         C104   1.412       .  A
C94         C102   1.386       .  A
C94         C105   1.409       .  A
C95        C1276   1.374       .  A
C95         H107   1.082       .  S
C96        C1275   1.372   1_455  A
C96         H108   1.082       .  S
C97        C1278   1.373       .  A
C97         H109   1.083       .  S
C98        C1277   1.371       .  A
C98         H110   1.082       .  S
C99         C690   1.383       .  A
C99         H111   1.082       .  S
C100        C689   1.383       .  A
C100        H112   1.082       .  S
C101        C692   1.383       .  A
C101        H113   1.082       .  S
C102        C691   1.380       .  A
C102        H114   1.082       .  S
C103        C522   1.483       .  S
C104        C534   1.484       .  S
C105        C483   1.474       .  S
C106        C471   1.480       .  S
N117        C122   1.346       .  A
N117        C121   1.357       .  A
N117        H149   1.042       .  S
N118        C125   1.342       .  A
N118        C126   1.340       .  A
N119        C124   1.354       .  A
N119        C123   1.358       .  A
N119        H150   1.039       .  S
N120        C127   1.364       .  A
N120        C128   1.363       .  A
C121        C129   1.384       .  A
C121        C137   1.414       .  A
C122        C138   1.414       .  A
C122        C130   1.390       .  A
C123        C131   1.382       .  A
C123        C140   1.417       .  A
C124        C139   1.426       .  A
C124        C132   1.392       .  A
C125        C137   1.398       .  A
C125        C133   1.387       .  A
C126        C140   1.398       .  A
C126        C134   1.387       .  A
C127        C135   1.387       .  A
C127        C138   1.438       .  A
C128        C136   1.388       .  A
C128        C139   1.440       .  A
C129        C130   1.380       .  A
C129        H141   1.082       .  S
C130        H142   1.082       .  S
C131        C132   1.377       .  A
C131        H143   1.082       .  S
C132        H144   1.081       .  S
C133        C134   1.368       .  A
C133        H145   1.082       .  S
C134        H146   1.083       .  S
C135        C136   1.391       .  A
C135        H147   1.082       .  S
C136        H148   1.082       .  S
C137        C474   1.482       .  S
C138        C447   1.509       .  S
C139        C462   1.516       .  S
C140        C486   1.480       .  S
N151        C156   1.361       .  A
N151        C155   1.356   1_655  A
N151        H183   1.040       .  S
N152        C159   1.362       .  A
N152        C160   1.364       .  A
N153        C158   1.353       .  A
N153        C157   1.348       .  A
N153        H184   1.041       .  S
N154        C161   1.345   1_455  A
N154        C162   1.345       .  A
C155        C163   1.393       .  A
C155       C1351   1.430       .  A
C156        C172   1.421       .  A
C156        C164   1.382   1_655  A
C157        C165   1.388       .  A
C157       C1354   1.410       .  A
C158        C173   1.410       .  A
C158        C166   1.385       .  A
C159        C171   1.440       .  A
C159        C167   1.388       .  A
C160        C174   1.438       .  A
C160        C168   1.386       .  A
C161        C169   1.388       .  A
C161        C172   1.404       .  A
C162        C170   1.385   1_455  A
C162        C173   1.402       .  A
C163        C164   1.378       .  A
C163        H175   1.081       .  S
C164        H176   1.082       .  S
C165        C166   1.376       .  A
C165        H177   1.081       .  S
C166        H178   1.082       .  S
C167        C168   1.389       .  A
C167        H179   1.082       .  S
C168        H180   1.082       .  S
C169        C170   1.367       .  A
C169        H181   1.082       .  S
C170        H182   1.082       .  S
C171       C1335   1.431       .  A
C171        C435   1.520       .  S
C172        C414   1.493       .  S
C173        C399   1.479       .  S
C174       C1337   1.412       .  A
C174        C423   1.506       .  S
N185        C190   1.345       .  A
N185        C189   1.346       .  A
N185        H217   1.040       .  S
N186        C193   1.352       .  A
N186        C194   1.350       .  A
N187        C192   1.351       .  A
N187        C191   1.351       .  A
N187        H218   1.038       .  S
N188        C785   1.346       .  A
N188        C786   1.343       .  A
C189        C197   1.387       .  A
C189        C205   1.403       .  A
C190        C198   1.387       .  A
C190        C796   1.403       .  A
C191        C199   1.386       .  A
C191        C208   1.410       .  A
C192        C200   1.388       .  A
C192        C797   1.413       .  A
C193        C205   1.414       .  A
C193        C201   1.385       .  A
C194        C208   1.413       .  A
C194        C202   1.386       .  A
C195        N778   1.354       .  A
C195        C203   1.384       .  A
C195        C206   1.414       .  A
C196        N778   1.350       .  A
C196        C204   1.388       .  A
C196        C207   1.417       .  A
C197        C198   1.374       .  A
C197        H209   1.083       .  S
C198        H210   1.083       .  S
C199        C200   1.373       .  A
C199        H211   1.082       .  S
C200        H212   1.082       .  S
C201        C202   1.382       .  A
C201        H213   1.082       .  S
C202        H214   1.082       .  S
C203        C204   1.378       .  A
C203        H215   1.082       .  S
C204        H216   1.082       .  S
C205        C402   1.486       .  S
C206        C780   1.411   1_545  A
C206        C411   1.491       .  S
C207        C782   1.419   1_545  A
C207        C387   1.488       .  S
C208        C378   1.485       .  S
O219       Cu227   2.008       .  S
O219        C229   1.277   1_655  A
O220       Cu227   2.007       .  S
O220        C230   1.277       .  A
O221       Cu227   2.019       .  S
O221        C231   1.281   1_655  A
O222       Cu227   2.023       .  S
O222        C232   1.279       .  A
O223       Cu228   2.003       .  S
O223        C232   1.277   1_455  A
O224       Cu228   2.004       .  S
O224        C231   1.275       .  A
O225       Cu228   2.013       .  S
O225        C230   1.279   1_455  A
O226       Cu228   2.018       .  S
O226        C229   1.280       .  A
Cu227      Cu228   2.365   1_655  S
C229        C351   1.491       .  S
C230        C390   1.486       .  S
C231        C375   1.496       .  S
C232        C363   1.484       .  S
C233        C459   1.603       .  S
C233       C1606   1.601       .  S
C233       C1618   1.603       .  S
C233       C1630   1.600       .  S
N234        C239   1.352       .  A
N234        C238   1.352       .  A
N234        H266   1.038       .  S
N235        C242   1.348       .  A
N235        C243   1.350       .  A
N236        C241   1.349       .  A
N236        C240   1.348       .  A
N236        H267   1.036       .  S
N237        C834   1.349       .  A
N237        C835   1.350       .  A
C238        C246   1.386       .  A
C238        C254   1.412       .  A
C239        C247   1.385       .  A
C239        C845   1.411       .  A
C240        C248   1.385       .  A
C240        C257   1.404       .  A
C241        C249   1.387       .  A
C241        C846   1.409       .  A
C242        C254   1.413       .  A
C242        C250   1.387       .  A
C243        C257   1.410       .  A
C243        C251   1.385       .  A
C244        N827   1.348       .  A
C244        C252   1.387       .  A
C244        C255   1.413       .  A
C245        N827   1.350       .  A
C245        C253   1.385       .  A
C245        C256   1.409       .  A
C246        C247   1.376       .  A
C246        H258   1.082       .  S
C247        H259   1.082       .  S
C248        C249   1.373       .  A
C248        H260   1.082       .  S
C249        H261   1.083       .  S
C250        C251   1.383       .  A
C250        H262   1.082       .  S
C251        H263   1.082       .  S
C252        C253   1.381       .  A
C252        H264   1.082       .  S
C253        H265   1.082       .  S
C254        C354   1.490       .  S
C255        C829   1.417   1_545  A
C255        C366   1.488       .  S
C256        C831   1.402   1_545  A
C256        C339   1.479       .  S
C257        C327   1.482       .  S
N268        C273   1.358   1_455  A
N268       C1452   1.351       .  A
N268        H300   1.041   1_455  S
N269        C276   1.365       .  A
N269        C277   1.363       .  A
N270        C275   1.357       .  A
N270       C1454   1.350       .  A
N270        H301   1.038       .  S
N271        C278   1.341       .  A
N271        C279   1.341       .  A
C272       N1448   1.354       .  A
C272        C280   1.392       .  A
C272        C288   1.424       .  A
C273        C289   1.417       .  A
C273        C281   1.384   1_655  A
C274       N1450   1.353       .  A
C274        C282   1.390       .  A
C274        C291   1.421       .  A
C275        C290   1.413       .  A
C275        C283   1.380       .  A
C276        C288   1.441       .  A
C276        C284   1.387       .  A
C277        C291   1.439       .  A
C277        C285   1.387       .  A
C278        C286   1.388       .  A
C278        C289   1.401       .  A
C279        C287   1.385       .  A
C279        C290   1.397   1_655  A
C280       C1461   1.373       .  A
C280        H292   1.079       .  S
C281       C1460   1.378       .  A
C281        H293   1.082       .  S
C282       C1463   1.374       .  A
C282        H294   1.082       .  S
C283       C1462   1.375       .  A
C283        H295   1.083       .  S
C284        C285   1.389       .  A
C284        H296   1.082       .  S
C285        H297   1.082       .  S
C286        C287   1.368       .  A
C286        H298   1.083       .  S
C287        H299   1.081       .  S
C288        C315   1.519       .  S
C289        C342   1.483       .  S
C290        C330   1.485       .  S
C291        C303   1.519       .  S
C302        C306   1.604       .  S
C302        C318   1.613       .  S
C302        C498   1.591       .  S
C302       C1690   1.613       .  S
C303        C304   1.395       .  A
C303       C1488   1.416       .  A
C304        C305   1.416       .  A
C304        H313   1.085       .  S
C305        C306   1.462       .  A
C305        S309   1.819       .  S
C306       C1487   1.421       .  A
C307        C308   1.414       .  A
C307       C1486   1.424       .  A
C307        H314   1.083       .  S
C308       C1483   1.415       .  A
C308        S310   1.807       .  S
S309        H312   1.388       .  S
S310        H311   1.406       .  S
C315        C316   1.404       .  A
C315       C1500   1.413       .  A
C316        C907   1.416       .  A
C316        H325   1.083       .  S
C317        C318   1.433       .  A
C317        C906   1.413       .  A
C317        S321   1.792       .  S
C318       C2089   1.431       .  A
C319        C320   1.416       .  A
C319       C2088   1.430   1_545  A
C319        H326   1.078       .  S
C320       C1495   1.411       .  A
C320        S322   1.802       .  S
S321        H324   1.406       .  S
S322        H323   1.405       .  S
C327        C328   1.400       .  A
C327        C332   1.415       .  A
C328        C329   1.400       .  A
C328        H337   1.084       .  S
C329        C330   1.417       .  A
C329        S333   1.804       .  S
C330       C1511   1.399       .  A
C331       C1510   1.402       .  A
C331       C1512   1.396       .  A
C331        H338   1.084       .  S
C332       C1511   1.398       .  A
C332       S1514   1.804   1_455  S
S333        H336   1.401       .  S
S334       C1512   1.808       .  S
S334        H335   1.401       .  S
C339        C340   1.398       .  A
C339        C344   1.416       .  A
C340        C341   1.395   1_655  A
C340        H349   1.084   1_655  S
C341        C342   1.417   1_455  A
C341        S345   1.807       .  S
C342       C1523   1.401       .  A
C343       C1522   1.405       .  A
C343       C1524   1.396       .  A
C343        H350   1.084       .  S
C344       C1523   1.400       .  A
C344       S2116   1.806       .  S
S345        H348   1.404       .  S
S346       C2114   1.806       .  S
S346        H347   1.406       .  S
C351        C352   1.410       .  A
C351        C356   1.418       .  A
C352        C353   1.401       .  A
C352        H361   1.083       .  S
C353        C354   1.409       .  A
C353        S357   1.802       .  S
C354        C355   1.404       .  A
C355        C356   1.403       .  A
C355        H362   1.084       .  S
C356        S358   1.808   1_455  S
S357        H360   1.407       .  S
S358        H359   1.408       .  S
C363        C364   1.406       .  A
C363        C368   1.418   1_655  A
C364        C365   1.404       .  A
C364        H373   1.084       .  S
C365        C366   1.413       .  A
C365        S959   1.803       .  S
C366        C367   1.399   1_655  A
C367        C368   1.397       .  A
C367        H374   1.084       .  S
C368        S370   1.802       .  S
S369        C955   1.804   1_655  S
S369        H372   1.407       .  S
S370        H371   1.405       .  S
C375        C376   1.408       .  A
C375        C380   1.423       .  A
C376        C377   1.398       .  A
C376        H385   1.083   1_455  S
C377        C378   1.411       .  A
C377        S381   1.807   1_455  S
C378        C379   1.400       .  A
C379        C380   1.403       .  A
C379        H386   1.084       .  S
C380        S382   1.799       .  S
S381        H384   1.404       .  S
S382        H383   1.404       .  S
C387        C388   1.399       .  A
C387        C392   1.411       .  A
C388        C389   1.401   1_655  A
C388        H397   1.083   1_655  S
C389        C390   1.418   1_455  A
C389        S393   1.806       .  S
C390        C391   1.407       .  A
C391        C392   1.402       .  A
C391        H398   1.084       .  S
C392        S984   1.803       .  S
S393        H396   1.406       .  S
S394        C982   1.803       .  S
S394        H395   1.405       .  S
C399        C400   1.405       .  A
C399        C404   1.407       .  A
C400        C401   1.400       .  A
C400        H409   1.084       .  S
C401        C402   1.410       .  A
C401        S405   1.803       .  S
C402        C403   1.408       .  A
C403        C404   1.394       .  A
C403        H410   1.082       .  S
C404       S1586   1.805   1_455  S
S405        H408   1.404       .  S
S406       C1584   1.806       .  S
S406        H407   1.402       .  S
C411        C412   1.402       .  A
C411        C416   1.414       .  A
C412        C413   1.401   1_655  A
C412        H421   1.084   1_655  S
C413        C414   1.417   1_455  A
C413        S417   1.804       .  S
C414        C415   1.402       .  A
C415        C416   1.403       .  A
C415        H422   1.084       .  S
C416       S1008   1.802       .  S
S417        H420   1.405       .  S
S418       C1006   1.803   1_655  S
S418        H419   1.405       .  S
C423        C424   1.403       .  A
C423       C1608   1.410       .  A
C424        C425   1.414       .  A
C424        H433   1.083       .  S
C425        C426   1.436       .  A
C425        S429   1.806       .  S
C426       C1607   1.424       .  A
C426       C1413   1.599       .  S
C427        C428   1.412       .  A
C427       C1606   1.425       .  A
C427        H434   1.077       .  S
C428       C1603   1.412       .  A
C428        S430   1.804       .  S
S429        H432   1.406       .  S
S430        H431   1.403       .  S
C435        C440   1.412       .  A
C435       C1616   1.407       .  A
C436       C1615   1.405       .  A
C436       C1027   1.418       .  A
C436        H445   1.082       .  S
C437       C1026   1.417       .  A
C437       C1618   1.436       .  A
C437        S441   1.807       .  S
C438       C1617   1.437       .  A
C438       C1029   1.424       .  A
C438       C1413   1.602       .  S
C439        C440   1.412       .  A
C439       C1028   1.427   1_545  A
C439        H446   1.076       .  S
C440        S442   1.809       .  S
S441        H444   1.407       .  S
S442        H443   1.402       .  S
C447        C448   1.401       .  A
C447        C452   1.417       .  A
C448        C449   1.416       .  A
C448        H457   1.083       .  S
C449        C450   1.439       .  A
C449        S453   1.809       .  S
C450        C451   1.416       .  A
C450       C1413   1.601       .  S
C451        C452   1.410       .  A
C451        H458   1.076       .  S
C452       S1044   1.807       .  S
S453        H456   1.407       .  S
S454       C1042   1.805   1_545  S
S454        H455   1.405       .  S
C459        C460   1.418       .  A
C459        C464   1.442       .  A
C460        C461   1.411       .  A
C460        H469   1.078       .  S
C461        C462   1.413       .  A
C461        S465   1.802       .  S
C462        C463   1.401       .  A
C463        C464   1.417       .  A
C463        H470   1.083       .  S
C464       S1056   1.808       .  S
S465        H468   1.406       .  S
S466       C1054   1.810   1_545  S
S466        H467   1.407       .  S
C471        C472   1.406       .  A
C471        C476   1.409       .  A
C472        C473   1.396       .  A
C472        H481   1.084       .  S
C473        C474   1.408       .  A
C473        S477   1.802       .  S
C474        C475   1.406       .  A
C475        C476   1.400       .  A
C475        H482   1.084       .  S
C476        S478   1.803       .  S
S477        H480   1.405       .  S
S478        H479   1.402       .  S
C483        C484   1.398       .  A
C483        C488   1.414       .  A
C484        C485   1.395       .  A
C484        H493   1.084       .  S
C485        C486   1.416       .  A
C485        S489   1.804       .  S
C486        C487   1.399       .  A
C487        C488   1.397       .  A
C487        H494   1.084       .  S
C488        S490   1.806       .  S
S489        H492   1.405       .  S
S490        H491   1.404       .  S
C495        C496   1.401       .  A
C495        C500   1.418       .  A
C496        C497   1.418       .  A
C496        H505   1.083       .  S
C497        C498   1.441       .  A
C497       S1091   1.810       .  S
C498        C499   1.417       .  A
C499        C500   1.416       .  A
C499        H506   1.080       .  S
C500        S502   1.807       .  S
S501       C1087   1.811   1_545  S
S501        H504   1.406       .  S
S502        H503   1.406       .  S
C507        C508   1.399       .  A
C507        C512   1.420       .  A
C508        C509   1.417       .  A
C508        H517   1.084       .  S
C509        C510   1.450       .  A
C509        S513   1.811       .  S
C510        C511   1.421       .  A
C510       C1482   1.613       .  S
C511        C512   1.414       .  A
C511        H518   1.081       .  S
C512       S1104   1.806       .  S
S513        H516   1.391       .  S
S514       C1102   1.804   1_545  S
S514       H1105   1.406       .  S
H515       S1104   1.407       .  S
C519        C524   1.417       .  A
C519       C1110   1.409       .  A
C520        C521   1.396       .  A
C520       C1109   1.411       .  A
C520        H529   1.083       .  S
C521       C1112   1.408       .  A
C521        S525   1.808       .  S
C522        C523   1.402       .  A
C522       C1111   1.408       .  A
C523        C524   1.406       .  A
C523        H530   1.083   1_565  S
C524        S526   1.807   1_565  S
S525        H528   1.400       .  S
S526        H527   1.407       .  S
C531        C532   1.404       .  A
C531       C1126   1.418       .  A
C532        C533   1.400       .  A
C532        H541   1.084   1_565  S
C533        C534   1.414       .  A
C533        S537   1.806   1_565  S
C534       C1125   1.398       .  A
C535        C536   1.397       .  A
C535       C1124   1.399       .  A
C535        H542   1.084       .  S
C536       C1121   1.418       .  A
C536        S538   1.801       .  S
S537        H540   1.405       .  S
S538        H539   1.405       .  S
C543        C544   1.404       .  A
C543        C548   1.408       .  A
C544        C545   1.397       .  A
C544       H1143   1.084       .  S
C545        C546   1.411       .  A
C545       S1139   1.807       .  S
C546        C547   1.408       .  A
C547        C548   1.401       .  A
C547        H554   1.084       .  S
C548        S550   1.804       .  S
S549       C1135   1.806       .  S
S549        H552   1.403       .  S
S550        H551   1.405       .  S
H553       C1134   1.084       .  S
C555        C556   1.399       .  A
C555        C560   1.414       .  A
C556        C557   1.398       .  A
C556        H565   1.084       .  S
C557        C558   1.419       .  A
C557        S561   1.807       .  S
C558        C559   1.398       .  A
C559        C560   1.396       .  A
C559        H566   1.084       .  S
C560        S562   1.804       .  S
S561        H564   1.403       .  S
S562        H563   1.405       .  S
C567        C572   1.411   1_565  A
C567       C1158   1.398       .  A
C568        C569   1.400       .  A
C568       C1157   1.399       .  A
C568        H577   1.084       .  S
C569       C1160   1.422       .  A
C569        S573   1.801       .  S
C570        C571   1.407       .  A
C570       C1159   1.420       .  A
C571        C572   1.401   1_565  A
C571        H578   1.083   1_565  S
C572        S574   1.804       .  S
S573        H576   1.405       .  S
S574        H575   1.406       .  S
C579        C584   1.408   1_565  A
C579       C1170   1.400       .  A
C580        C581   1.399       .  A
C580       C1169   1.400       .  A
C580        H589   1.084       .  S
C581       C1172   1.423       .  A
C581        S585   1.801       .  S
C582        C583   1.409       .  A
C582       C1171   1.423       .  A
C583        C584   1.398   1_565  A
C583        H590   1.083   1_565  S
C584        S586   1.804       .  S
S585        H588   1.407       .  S
S586        H587   1.403       .  S
N591        C596   1.354       .  A
N591       C1775   1.353       .  A
N591        H623   1.039       .  S
N592        C600   1.350       .  A
N593       C1778   1.346       .  A
N593        C597   1.348       .  A
N593        H624   1.041       .  S
N594        C602   1.352       .  A
C595       N1771   1.354       .  A
C595        C603   1.385       .  A
C595        C611   1.412       .  A
C596        C612   1.416       .  A
C596        C604   1.388       .  A
C597        C605   1.387       .  A
C597        C614   1.404       .  A
C598       N1773   1.347       .  A
C598        C613   1.401       .  A
C598        C606   1.386       .  A
C599        C611   1.412       .  A
C599        C607   1.386       .  A
C600        C614   1.409       .  A
C600        C608   1.384       .  A
C601        C609   1.386       .  A
C601        C612   1.412       .  A
C602        C610   1.384       .  A
C602        C613   1.411       .  A
C603       C1784   1.373       .  A
C603        H615   1.083       .  S
C604       C1783   1.369       .  A
C604        H616   1.082       .  S
C605       C1786   1.369       .  A
C605        H617   1.082       .  S
C606       C1785   1.370   1_455  A
C606        H618   1.083       .  S
C607        H619   1.082       .  S
C608        H620   1.082   1_565  S
C609        H621   1.082       .  S
C610        H622   1.082       .  S
C611       C1157   1.487       .  S
C612       C1169   1.486       .  S
C613       C1145   1.484       .  S
C614       C1133   1.481       .  S
O625       Cu633   2.010       .  S
O626       Cu633   2.008   1_554  S
O627       Cu633   2.000   1_554  S
O628       Cu633   2.000       .  S
O629       Cu634   2.020       .  S
O629        C638   1.278       .  A
O630       Cu634   2.019   1_554  S
O630        C637   1.281       .  A
O631       Cu634   2.017   1_554  S
O631        C636   1.280       .  A
O632       Cu634   2.014       .  S
O632        C635   1.278       .  A
C635       C1121   1.485       .  S
C636       C1160   1.491       .  S
C637       C1172   1.494       .  S
C638       C1109   1.492       .  S
N639        C644   1.358       .  A
N639        C643   1.348       .  A
N639        H671   1.041       .  S
N640        C647   1.368       .  A
N640        C648   1.367       .  A
N641        C646   1.358       .  A
N641        C645   1.352       .  A
N641        H672   1.042       .  S
N642        C649   1.342   1_565  A
N642        C650   1.342   1_565  A
C643        C651   1.390       .  A
C643        C659   1.416       .  A
C644        C660   1.414       .  A
C644        C652   1.384       .  A
C645        C653   1.394       .  A
C645        C662   1.426       .  A
C646        C661   1.416       .  A
C646        C654   1.382       .  A
C647        C659   1.444       .  A
C647        C655   1.386       .  A
C648        C662   1.446       .  A
C648        C656   1.387       .  A
C649        C657   1.386       .  A
C649        C660   1.398   1_545  A
C650        C658   1.387       .  A
C650        C661   1.400   1_545  A
C651        C652   1.379       .  A
C651        H663   1.082       .  S
C652        H664   1.082       .  S
C653        C654   1.376       .  A
C653        H665   1.079       .  S
C654        H666   1.083       .  S
C655        C656   1.392       .  A
C655        H667   1.082       .  S
C656        H668   1.082       .  S
C657        C658   1.369       .  A
C657        H669   1.082       .  S
C658        H670   1.082       .  S
C659       C1097   1.520       .  S
C660       C1148   1.485       .  S
C661       C1136   1.482       .  S
C662       C1085   1.521       .  S
N673       C1858   1.351       .  A
N673        C677   1.350       .  A
N673        H705   1.040       .  S
N674        C682   1.349       .  A
N675       C1860   1.346       .  A
N675        C679   1.348       .  A
N675        H706   1.040       .  S
N676        C684   1.349       .  A
C677        C685   1.387       .  A
C677        C693   1.411       .  A
C678       N1853   1.355       .  A
C678        C694   1.413       .  A
C678        C686   1.385       .  A
C679        C687   1.386       .  A
C679        C696   1.403       .  A
C680       N1855   1.348       .  A
C680        C695   1.407       .  A
C680        C688   1.387       .  A
C681        C693   1.411       .  A
C681        C689   1.387       .  A
C682        C696   1.409       .  A
C682        C690   1.385       .  A
C683        C691   1.385       .  A
C683        C694   1.410       .  A
C684        C692   1.385       .  A
C684        C695   1.412       .  A
C685       C1866   1.375       .  A
C685        H697   1.082       .  S
C686       C1865   1.370       .  A
C686        H698   1.082       .  S
C687       C1868   1.372       .  A
C687        H699   1.082       .  S
C688       C1867   1.371       .  A
C688        H700   1.083       .  S
C689        H701   1.082       .  S
C690        H702   1.082       .  S
C691        H703   1.082       .  S
C692        H704   1.082       .  S
C693       C1112   1.481       .  S
C694       C1124   1.489       .  S
C695       C1073   1.483       .  S
C696       C1061   1.480       .  S
N707        C712   1.349       .  A
N707        C711   1.356       .  A
N707        H739   1.043       .  S
N708        C715   1.341   1_565  A
N708        C716   1.340   1_565  A
N709        C714   1.353       .  A
N709        C713   1.360       .  A
N709        H740   1.039       .  S
N710        C717   1.365       .  A
N710        C718   1.364       .  A
C711        C719   1.384       .  A
C711        C727   1.412       .  A
C712        C728   1.413       .  A
C712        C720   1.388       .  A
C713        C721   1.381       .  A
C713        C730   1.418       .  A
C714        C729   1.427       .  A
C714        C722   1.393       .  A
C715        C727   1.398   1_545  A
C715        C723   1.387       .  A
C716        C730   1.398   1_545  A
C716        C724   1.387       .  A
C717        C725   1.386       .  A
C717        C728   1.439       .  A
C718        C726   1.389       .  A
C718        C729   1.443       .  A
C719        C720   1.379       .  A
C719        H731   1.082       .  S
C720        H732   1.082       .  S
C721        C722   1.377       .  A
C721        H733   1.082       .  S
C722        H734   1.080       .  S
C723        C724   1.369       .  A
C723        H735   1.082       .  S
C724        H736   1.083       .  S
C725        C726   1.392       .  A
C725        H737   1.082       .  S
C726        H738   1.082       .  S
C727       C1064   1.480       .  S
C728       C1037   1.517       .  S
C729       C1052   1.516       .  S
C730       C1076   1.487       .  S
N741        C746   1.355       .  A
N741        C745   1.349       .  A
N741        H773   1.040   1_455  S
N742        C749   1.364       .  A
N742        C750   1.362       .  A
N743        C748   1.357       .  A
N743        C747   1.351   1_655  A
N743        H774   1.042       .  S
N744        C751   1.341       .  A
N744        C752   1.341       .  A
C745        C753   1.393       .  A
C745       C1941   1.420       .  A
C746        C762   1.410       .  A
C746        C754   1.381       .  A
C747        C755   1.391       .  A
C747       C1944   1.421       .  A
C748        C763   1.415       .  A
C748        C756   1.384   1_655  A
C749        C761   1.439       .  A
C749        C757   1.387       .  A
C750        C764   1.438       .  A
C750        C758   1.387       .  A
C751        C759   1.385       .  A
C751        C762   1.394   1_655  A
C752        C760   1.390       .  A
C752        C763   1.401       .  A
C753        C754   1.376       .  A
C753        H765   1.078       .  S
C754        H766   1.083       .  S
C755        C756   1.377       .  A
C755        H767   1.082       .  S
C756        H768   1.083       .  S
C757        C758   1.391       .  A
C757        H769   1.082       .  S
C758        H770   1.082       .  S
C759        C760   1.367       .  A
C759        H771   1.083       .  S
C760        H772   1.082       .  S
C761       C1925   1.422       .  A
C761       C1025   1.522       .  S
C762       C1004   1.475       .  S
C763        C989   1.478       .  S
C764       C1927   1.420       .  A
C764       C1013   1.517       .  S
N775        C780   1.354       .  A
N775        C779   1.351       .  A
N775        H807   1.040       .  S
N776        C783   1.351       .  A
N776        C784   1.352       .  A
N777        C782   1.355       .  A
N777        C781   1.358       .  A
N777        H808   1.039       .  S
C779        C787   1.390       .  A
C779        C795   1.412       .  A
C780        C788   1.387       .  A
C781        C789   1.387       .  A
C781        C798   1.419       .  A
C782        C790   1.388       .  A
C783        C795   1.414       .  A
C783        C791   1.386       .  A
C784        C798   1.416       .  A
C784        C792   1.387       .  A
C785        C793   1.385       .  A
C785        C796   1.406       .  A
C786        C794   1.387       .  A
C786        C797   1.407       .  A
C787        C788   1.363       .  A
C787        H799   1.082       .  S
C788        H800   1.082       .  S
C789        C790   1.370       .  A
C789        H801   1.082       .  S
C790        H802   1.082       .  S
C791        C792   1.379       .  A
C791        H803   1.082       .  S
C792        H804   1.082       .  S
C793        C794   1.381       .  A
C793        H805   1.082       .  S
C794        H806   1.082   1_455  S
C795        C992   1.481       .  S
C796       C1001   1.473       .  S
C797        C977   1.474       .  S
C798        C968   1.497       .  S
O809       Cu817   2.021       .  S
O809        C819   1.279       .  A
O810       Cu817   2.013       .  S
O810        C820   1.280   1_655  A
O811       Cu817   2.037       .  S
O811        C821   1.280       .  A
O812       Cu817   2.032       .  S
O812        C822   1.281   1_655  A
O813       Cu818   2.015       .  S
O813        C822   1.278       .  A
O814       Cu818   2.022       .  S
O814        C821   1.279   1_455  A
O815       Cu818   1.983       .  S
O815        C820   1.273       .  A
O816       Cu818   2.001       .  S
O816        C819   1.278   1_455  A
Cu817      Cu818   2.365   1_655  S
C819        C941   1.491       .  S
C820        C980   1.487       .  S
C821        C965   1.492       .  S
C822        C953   1.495       .  S
C823       C2196   1.601       .  S
C823       C2208   1.600       .  S
C823       C2220   1.602   1_455  S
C823       C1049   1.601       .  S
N824        C829   1.356       .  A
N824        C828   1.356       .  A
N824        H856   1.036       .  S
N825        C832   1.349       .  A
N825        C833   1.351       .  A
N826        C831   1.348       .  A
N826        C830   1.349       .  A
N826        H857   1.039       .  S
C828        C836   1.388       .  A
C828        C844   1.419       .  A
C829        C837   1.386       .  A
C830        C838   1.388       .  A
C830        C847   1.405       .  A
C831        C839   1.386       .  A
C832        C844   1.416       .  A
C832        C840   1.388       .  A
C833        C847   1.411       .  A
C833        C841   1.384       .  A
C834        C842   1.387       .  A
C834        C845   1.415       .  A
C835        C843   1.386       .  A
C835        C846   1.414       .  A
C836        C837   1.370       .  A
C836        H848   1.082       .  S
C837        H849   1.082       .  S
C838        C839   1.365       .  A
C838        H850   1.082   1_655  S
C839        H851   1.082   1_655  S
C840        C841   1.382       .  A
C840        H852   1.082       .  S
C841        H853   1.082       .  S
C842        C843   1.385       .  A
C842        H854   1.082       .  S
C843        H855   1.082       .  S
C844        C944   1.490       .  S
C845        C956   1.494       .  S
C846        C929   1.486       .  S
C847        C917   1.482       .  S
N858        C863   1.355       .  A
N858       C2042   1.346       .  A
N858        H890   1.040       .  S
N859        C866   1.365       .  A
N859        C867   1.362       .  A
N860        C865   1.359       .  A
N860       C2044   1.353       .  A
N860        H891   1.040       .  S
N861        C868   1.343       .  A
N861        C869   1.343   1_455  A
C862       N2038   1.349       .  A
C862        C870   1.387       .  A
C862        C878   1.412       .  A
C863        C879   1.413       .  A
C863        C871   1.385       .  A
C864       N2040   1.354       .  A
C864        C872   1.393       .  A
C864        C881   1.427       .  A
C865        C880   1.415   1_455  A
C865        C873   1.380       .  A
C866        C878   1.437       .  A
C866        C874   1.385       .  A
C867        C881   1.441       .  A
C867        C875   1.389       .  A
C868        C876   1.386   1_455  A
C868        C879   1.400       .  A
C869        C877   1.387       .  A
C869        C880   1.399       .  A
C870       C2051   1.377       .  A
C870        H882   1.082       .  S
C871       C2050   1.381       .  A
C871        H883   1.082       .  S
C872       C2053   1.375       .  A
C872        H884   1.081       .  S
C873       C2052   1.375       .  A
C873        H885   1.082       .  S
C874        C875   1.392       .  A
C874        H886   1.082       .  S
C875        H887   1.082       .  S
C876        C877   1.364       .  A
C876        H888   1.082       .  S
C877        H889   1.082       .  S
C878        C905   1.518       .  S
C879        C932   1.480       .  S
C880        C920   1.485       .  S
C881        C893   1.512       .  S
C892        C896   1.600       .  S
C892        C908   1.608       .  S
C892       C1088   1.591       .  S
C892       C2280   1.603       .  S
C893        C894   1.395       .  A
C893       C2078   1.412       .  A
C894        C895   1.413       .  A
C894        H903   1.085       .  S
C895        C896   1.456       .  A
C895        S899   1.817       .  S
C896       C2077   1.424       .  A
C897       C2076   1.424       .  A
C897        C898   1.412       .  A
C897        H904   1.083       .  S
C898       C2073   1.413       .  A
C898        S900   1.805       .  S
S899        H902   1.383       .  S
S900        H901   1.405       .  S
C905        C906   1.402       .  A
C905       C2090   1.413       .  A
C906        H915   1.083       .  S
C907        C908   1.431   1_545  A
C907        S911   1.793   1_545  S
C908       C1499   1.428   1_565  A
C909       C1498   1.428       .  A
C909        C910   1.414       .  A
C909        H916   1.077       .  S
C910       C2085   1.409       .  A
C910        S912   1.802       .  S
S911        H914   1.408   1_565  S
S912        H913   1.403       .  S
C917        C918   1.401   1_655  A
C917        C922   1.415       .  A
C918        C919   1.397       .  A
C918        H927   1.084       .  S
C919        C920   1.417   1_455  A
C919        S923   1.806       .  S
C920       C2101   1.400       .  A
C921       C2100   1.404       .  A
C921       C2102   1.401       .  A
C921        H928   1.084       .  S
C922       C2101   1.400       .  A
C922       S2104   1.804       .  S
S923        H926   1.406       .  S
S924       C2102   1.802       .  S
S924        H925   1.405       .  S
C929        C930   1.401       .  A
C929        C934   1.415       .  A
C930        C931   1.402       .  A
C930        H939   1.083       .  S
C931        C932   1.415       .  A
C931        S935   1.804       .  S
C932       C2113   1.398       .  A
C933       C2112   1.401       .  A
C933       C2114   1.400       .  A
C933        H940   1.084       .  S
C934       C2113   1.395       .  A
C934       S1526   1.799   1_455  S
S935        H938   1.405       .  S
S936       C1524   1.804       .  S
S936        H937   1.404       .  S
C941        C942   1.408   1_655  A
C941        C946   1.416       .  A
C942        C943   1.397       .  A
C942        H951   1.083       .  S
C943        C944   1.410   1_455  A
C943        S947   1.805       .  S
C944        C945   1.404       .  A
C945        C946   1.409       .  A
C945        H952   1.083       .  S
C946        S948   1.806       .  S
S947        H950   1.404       .  S
S948        H949   1.407       .  S
C953        C954   1.405       .  A
C953        C958   1.420       .  A
C954        C955   1.403       .  A
C954        H963   1.083   1_455  S
C955        C956   1.416       .  A
C956        C957   1.400       .  A
C957        C958   1.403       .  A
C957        H964   1.084       .  S
C958        S960   1.798       .  S
S959        H962   1.406       .  S
S960        H961   1.405       .  S
C965        C966   1.406       .  A
C965        C970   1.418       .  A
C966        C967   1.407       .  A
C966        H975   1.083       .  S
C967        C968   1.416       .  A
C967        S971   1.803       .  S
C968        C969   1.401       .  A
C969        C970   1.401       .  A
C969        H976   1.084   1_655  S
C970        S972   1.800   1_655  S
S971        H974   1.406       .  S
S972        H973   1.405       .  S
C977        C978   1.395       .  A
C977        C982   1.407   1_455  A
C978        C979   1.398       .  A
C978        H987   1.083       .  S
C979        C980   1.424       .  A
C979        S983   1.811       .  S
C980        C981   1.409   1_455  A
C981        C982   1.396       .  A
C981        H988   1.083       .  S
S983        H986   1.407       .  S
S984        H985   1.406       .  S
C989        C990   1.402       .  A
C989        C994   1.408       .  A
C990        C991   1.394       .  A
C990        H999   1.084   1_655  S
C991        C992   1.412       .  A
C991        S995   1.803   1_655  S
C992        C993   1.406       .  A
C993        C994   1.399       .  A
C993       H1000   1.084       .  S
C994       S2176   1.801       .  S
S995        H998   1.401       .  S
S996       C2174   1.805       .  S
S996        H997   1.405       .  S
C1001      C1002   1.396       .  A
C1001      C1006   1.415       .  A
C1002      C1003   1.394       .  A
C1002      H1011   1.084       .  S
C1003      C1004   1.416       .  A
C1003      S1007   1.804       .  S
C1004      C1005   1.397       .  A
C1005      C1006   1.394       .  A
C1005      H1012   1.084   1_455  S
S1007      H1010   1.405       .  S
S1008      H1009   1.406       .  S
C1013      C1014   1.405       .  A
C1013      C2198   1.409       .  A
C1014      C1015   1.414       .  A
C1014      H1023   1.082       .  S
C1015      C1016   1.437       .  A
C1015      S1019   1.808       .  S
C1016      C2197   1.428       .  A
C1016      C2003   1.603       .  S
C1017      C2196   1.428       .  A
C1017      C1018   1.413       .  A
C1017      H1024   1.076       .  S
C1018      C2193   1.410       .  A
C1018      S1020   1.805       .  S
S1019      H1022   1.406       .  S
S1020      H1021   1.405       .  S
C1025      C2206   1.408       .  A
C1025      C1030   1.412       .  A
C1026      C2205   1.404       .  A
C1026      H1035   1.082       .  S
C1027      C2208   1.437   1_545  A
C1027      S1031   1.808   1_545  S
C1028      C2207   1.436   1_565  A
C1028      C2003   1.606       .  S
C1029      C1030   1.409       .  A
C1029      H1036   1.076       .  S
C1030      S1032   1.805       .  S
S1031      H1034   1.406   1_565  S
S1032      H1033   1.404       .  S
C1037      C1038   1.402       .  A
C1037      C1042   1.417       .  A
C1038      C1039   1.419       .  A
C1038      H1047   1.082       .  S
C1039      C1040   1.441       .  A
C1039      S1043   1.811       .  S
C1040      C1041   1.416       .  A
C1040      C2003   1.603       .  S
C1041      C1042   1.412       .  A
C1041      H1048   1.078   1_565  S
S1043      H1046   1.406       .  S
S1044      H1045   1.404       .  S
C1049      C1050   1.418       .  A
C1049      C1054   1.442       .  A
C1050      C1051   1.412       .  A
C1050      H1059   1.078       .  S
C1051      C1052   1.415       .  A
C1051      S1055   1.804       .  S
C1052      C1053   1.401       .  A
C1053      C1054   1.416       .  A
C1053      H1060   1.083   1_565  S
S1055      H1058   1.405       .  S
S1056      H1057   1.407       .  S
C1061      C1062   1.406       .  A
C1061      C1066   1.410       .  A
C1062      C1063   1.398       .  A
C1062      H1071   1.084   1_565  S
C1063      C1064   1.407       .  A
C1063      S1067   1.803   1_565  S
C1064      C1065   1.404       .  A
C1065      C1066   1.398       .  A
C1065      H1072   1.084       .  S
C1066      S1068   1.801       .  S
S1067      H1070   1.405       .  S
S1068      H1069   1.404       .  S
C1073      C1074   1.400       .  A
C1073      C1078   1.417   1_565  A
C1074      C1075   1.399       .  A
C1074      H1083   1.084       .  S
C1075      C1076   1.418       .  A
C1075      S1079   1.806       .  S
C1076      C1077   1.399   1_565  A
C1077      C1078   1.400       .  A
C1077      H1084   1.084       .  S
C1078      S1080   1.807       .  S
S1079      H1082   1.405       .  S
S1080      H1081   1.405       .  S
C1085      C1086   1.403       .  A
C1085      C1090   1.417       .  A
C1086      C1087   1.420       .  A
C1086      H1095   1.082   1_565  S
C1087      C1088   1.440       .  A
C1088      C1089   1.417       .  A
C1089      C1090   1.414       .  A
C1089      H1096   1.080       .  S
C1090      S1092   1.804       .  S
S1091      H1094   1.407       .  S
S1092      H1093   1.406       .  S
C1097      C1098   1.403       .  A
C1097      C1102   1.417       .  A
C1098      C1099   1.422       .  A
C1098      H1107   1.083       .  S
C1099      C1100   1.443       .  A
C1099      S1103   1.810       .  S
C1100      C1101   1.417       .  A
C1100      C2072   1.609       .  S
C1101      C1102   1.411       .  A
C1101      H1108   1.080   1_565  S
S1103      H1106   1.407       .  S
C1109      C1114   1.418       .  A
C1110      C1111   1.397       .  A
C1110      H1119   1.083       .  S
C1111      S1115   1.803       .  S
C1112      C1113   1.404       .  A
C1113      C1114   1.405       .  A
C1113      H1120   1.083       .  S
C1114      S1116   1.810       .  S
S1115      H1118   1.404       .  S
S1116      H1117   1.407       .  S
C1121      C1122   1.406       .  A
C1122      C1123   1.404       .  A
C1122      H1131   1.084       .  S
C1123      C1124   1.414       .  A
C1123      S1127   1.803       .  S
C1125      C1126   1.399       .  A
C1125      H1132   1.084       .  S
C1126      S1128   1.797       .  S
S1127      H1130   1.406       .  S
S1128      H1129   1.407       .  S
C1133      C1134   1.406   1_565  A
C1133      C1138   1.408       .  A
C1134      C1135   1.402       .  A
C1135      C1136   1.412   1_545  A
C1136      C1137   1.404       .  A
C1137      C1138   1.395       .  A
C1137      H1144   1.084       .  S
C1138      S1140   1.802       .  S
S1139      H1142   1.402       .  S
S1140      H1141   1.404       .  S
C1145      C1146   1.399       .  A
C1145      C1150   1.417   1_565  A
C1146      C1147   1.400       .  A
C1146      H1155   1.084       .  S
C1147      C1148   1.417       .  A
C1147      S1151   1.804       .  S
C1148      C1149   1.399   1_565  A
C1149      C1150   1.399       .  A
C1149      H1156   1.084       .  S
C1150      S1152   1.804       .  S
S1151      H1154   1.404       .  S
S1152      H1153   1.407       .  S
C1157      C1162   1.413       .  A
C1158      C1159   1.396       .  A
C1158      H1167   1.084       .  S
C1159      S1163   1.802       .  S
C1160      C1161   1.406       .  A
C1161      C1162   1.400       .  A
C1161      H1168   1.084       .  S
C1162      S1164   1.804       .  S
S1163      H1166   1.405       .  S
S1164      H1165   1.406       .  S
C1169      C1174   1.410       .  A
C1170      C1171   1.398       .  A
C1170      H1179   1.084       .  S
C1171      S1175   1.802       .  S
C1172      C1173   1.409       .  A
C1173      C1174   1.400       .  A
C1173      H1180   1.083       .  S
C1174      S1176   1.805       .  S
S1175      H1178   1.408       .  S
S1176      H1177   1.402       .  S
N1181      C1186   1.353       .  A
N1181      H1213   1.038       .  S
N1182      C1779   1.348       .  A
N1182      C1190   1.351       .  A
N1183      C1187   1.350       .  A
N1183      H1214   1.037       .  S
N1184      C1781   1.348       .  A
N1184      C1192   1.352       .  A
C1185      C1193   1.386       .  A
C1185      C1201   1.415       .  A
C1186      C1202   1.414       .  A
C1186      C1194   1.387       .  A
C1187      C1195   1.388       .  A
C1187      C1204   1.409   1_455  A
C1188      C1203   1.402       .  A
C1188      C1196   1.385       .  A
C1189      N1772   1.349       .  A
C1189      C1201   1.412       .  A
C1189      C1197   1.386       .  A
C1190      C1204   1.411       .  A
C1190      C1198   1.385       .  A
C1191      N1774   1.348       .  A
C1191      C1199   1.387       .  A
C1191      C1202   1.413       .  A
C1192      C1200   1.384       .  A
C1192      C1203   1.413       .  A
C1193      H1205   1.082       .  S
C1194      H1206   1.082       .  S
C1195      H1207   1.082   1_455  S
C1196      H1208   1.082       .  S
C1197      C1788   1.381       .  A
C1197      H1209   1.082       .  S
C1198      C1787   1.377       .  A
C1198      H1210   1.082       .  S
C1199      C1790   1.384       .  A
C1199      H1211   1.082       .  S
C1200      C1789   1.384       .  A
C1200      H1212   1.082       .  S
C1201      C1747   1.488       .  S
C1202      C1759   1.484       .  S
C1203      C1735   1.487       .  S
C1204      C1723   1.481       .  S
O1215     Cu1223   2.022       .  S
O1215      C1815   1.279       .  A
O1216     Cu1223   2.009   1_554  S
O1216      C1816   1.278       .  A
O1217     Cu1223   2.004   1_554  S
O1217      C1817   1.275       .  A
O1218     Cu1223   1.989       .  S
O1218      C1818   1.277       .  A
O1219     Cu1224   2.011       .  S
O1219      C1228   1.277       .  A
O1220     Cu1224   2.001   1_554  S
O1220      C1227   1.279       .  A
O1221     Cu1224   2.014   1_554  S
O1221      C1226   1.279       .  A
O1222     Cu1224   2.011       .  S
O1222      C1225   1.279       .  A
Cu1223    Cu1814   2.365       .  S
Cu1224    Cu1813   2.363       .  S
C1225      C1711   1.492       .  S
C1225      O1805   1.277       .  A
C1226      C1750   1.490       .  S
C1226      O1806   1.278       .  A
C1227      C1762   1.493       .  S
C1227      O1807   1.276       .  A
C1228      C1699   1.484       .  S
C1228      O1808   1.279       .  A
N1229      C1234   1.357       .  A
N1229      C1233   1.348       .  A
N1229      H1261   1.041       .  S
N1230      C1237   1.366       .  A
N1230      C1238   1.365       .  A
N1231      C1236   1.358       .  A
N1231      C1235   1.354       .  A
N1231      H1262   1.042       .  S
N1232      C1239   1.343       .  A
N1232      C1240   1.342       .  A
C1233      C1241   1.390       .  A
C1233      C1249   1.417       .  A
C1234      C1250   1.415       .  A
C1234      C1242   1.384       .  A
C1235      C1243   1.394       .  A
C1235      C1252   1.427       .  A
C1236      C1251   1.417       .  A
C1236      C1244   1.382       .  A
C1237      C1249   1.443       .  A
C1237      C1245   1.386       .  A
C1238      C1252   1.444       .  A
C1238      C1246   1.387       .  A
C1239      C1247   1.385       .  A
C1239      C1250   1.399       .  A
C1240      C1248   1.388       .  A
C1240      C1251   1.401       .  A
C1241      C1242   1.379       .  A
C1241      H1253   1.082       .  S
C1242      H1254   1.082       .  S
C1243      C1244   1.373       .  A
C1243      H1255   1.080       .  S
C1244      H1256   1.083       .  S
C1245      C1246   1.392       .  A
C1245      H1257   1.082       .  S
C1246      H1258   1.082       .  S
C1247      C1248   1.367       .  A
C1247      H1259   1.082       .  S
C1248      H1260   1.082       .  S
C1249      C1687   1.518       .  S
C1250      C1738   1.486       .  S
C1251      C1726   1.481       .  S
C1252      C1675   1.520       .  S
N1263      C1267   1.350   1_455  A
N1263      H1295   1.041       .  S
N1264      C1861   1.346       .  A
N1264      C1272   1.352       .  A
N1265      C1269   1.350       .  A
N1265      H1296   1.040       .  S
N1266      C1863   1.348       .  A
N1266      C1274   1.351       .  A
C1267      C1275   1.386       .  A
C1267      C1283   1.409       .  A
C1268      C1284   1.416       .  A
C1268      C1276   1.387       .  A
C1269      C1277   1.386       .  A
C1269      C1286   1.406   1_455  A
C1270      C1285   1.401       .  A
C1270      C1278   1.386       .  A
C1271      N1854   1.348       .  A
C1271      C1283   1.410       .  A
C1271      C1279   1.386       .  A
C1272      C1286   1.413       .  A
C1272      C1280   1.384       .  A
C1273      N1856   1.349       .  A
C1273      C1281   1.387       .  A
C1273      C1284   1.415       .  A
C1274      C1282   1.384       .  A
C1274      C1285   1.412       .  A
C1275      H1287   1.082       .  S
C1276      H1288   1.082       .  S
C1277      H1289   1.082       .  S
C1278      H1290   1.082       .  S
C1279      C1870   1.382       .  A
C1279      H1291   1.082       .  S
C1280      C1869   1.382       .  A
C1280      H1292   1.082       .  S
C1281      C1872   1.385       .  A
C1281      H1293   1.082       .  S
C1282      C1871   1.383       .  A
C1282      H1294   1.082       .  S
C1283      C1702   1.485       .  S
C1284      C1714   1.489       .  S
C1285      C1663   1.482       .  S
C1286      C1651   1.489       .  S
N1297      C1302   1.351       .  A
N1297      C1301   1.359       .  A
N1297      H1329   1.040       .  S
N1298      C1305   1.344       .  A
N1298      C1306   1.343       .  A
N1299      C1304   1.353       .  A
N1299      C1303   1.358       .  A
N1299      H1330   1.037       .  S
N1300      C1307   1.362       .  A
N1300      C1308   1.364       .  A
C1301      C1309   1.384       .  A
C1301      C1317   1.418       .  A
C1302      C1318   1.418       .  A
C1302      C1310   1.389       .  A
C1303      C1311   1.383       .  A
C1303      C1320   1.417       .  A
C1304      C1319   1.422       .  A
C1304      C1312   1.390       .  A
C1305      C1317   1.404       .  A
C1305      C1313   1.388       .  A
C1306      C1320   1.401       .  A
C1306      C1314   1.387       .  A
C1307      C1315   1.386       .  A
C1307      C1318   1.435       .  A
C1308      C1316   1.387       .  A
C1308      C1319   1.438       .  A
C1309      C1310   1.377       .  A
C1309      H1321   1.082       .  S
C1310      H1322   1.082       .  S
C1311      C1312   1.376       .  A
C1311      H1323   1.082       .  S
C1312      H1324   1.080       .  S
C1313      C1314   1.368       .  A
C1313      H1325   1.082       .  S
C1314      H1326   1.083       .  S
C1315      C1316   1.389       .  A
C1315      H1327   1.082       .  S
C1316      H1328   1.082       .  S
C1317      C1654   1.487       .  S
C1318      C1627   1.511       .  S
C1319      C1642   1.515       .  S
C1320      C1666   1.486       .  S
N1331      C1336   1.359       .  A
N1331      C1335   1.358       .  A
N1331      H1363   1.035       .  S
N1332      C1339   1.361       .  A
N1332      C1340   1.365       .  A
N1333      C1338   1.354       .  A
N1333      C1337   1.346       .  A
N1333      H1364   1.036       .  S
N1334      C1341   1.345       .  A
N1334      C1342   1.346       .  A
C1335      C1343   1.392       .  A
C1336      C1352   1.423       .  A
C1336      C1344   1.384       .  A
C1337      C1345   1.390       .  A
C1338      C1353   1.410       .  A
C1338      C1346   1.384       .  A
C1339      C1351   1.439       .  A
C1339      C1347   1.389       .  A
C1340      C1354   1.437       .  A
C1340      C1348   1.385       .  A
C1341      C1349   1.389       .  A
C1341      C1352   1.406       .  A
C1342      C1350   1.385       .  A
C1342      C1353   1.403       .  A
C1343      C1344   1.378       .  A
C1343      H1355   1.081       .  S
C1344      H1356   1.083       .  S
C1345      C1346   1.374       .  A
C1345      H1357   1.081       .  S
C1346      H1358   1.082       .  S
C1347      C1348   1.390       .  A
C1347      H1359   1.082       .  S
C1348      H1360   1.082       .  S
C1349      C1350   1.366       .  A
C1349      H1361   1.082       .  S
C1350      H1362   1.082       .  S
C1351      C1615   1.515       .  S
C1352      C1594   1.485       .  S
C1353      C1579   1.478       .  S
C1354      C1603   1.514       .  S
N1365      C1370   1.347       .  A
N1365      C1369   1.347       .  A
N1365      H1397   1.040       .  S
N1366      C1373   1.352       .  A
N1366      C1374   1.350       .  A
N1367      C1372   1.352       .  A
N1367      C1371   1.351       .  A
N1367      H1398   1.039       .  S
N1368      C1965   1.350       .  A
N1368      C1966   1.347       .  A
C1369      C1377   1.388       .  A
C1369      C1385   1.406       .  A
C1370      C1976   1.405       .  A
C1370      C1378   1.386       .  A
C1371      C1379   1.386       .  A
C1371      C1388   1.411       .  A
C1372      C1977   1.415       .  A
C1372      C1380   1.389       .  A
C1373      C1385   1.414       .  A
C1373      C1381   1.386       .  A
C1374      C1388   1.411       .  A
C1374      C1382   1.385       .  A
C1375      N1958   1.352       .  A
C1375      C1383   1.385       .  A
C1375      C1386   1.413       .  A
C1376      N1958   1.350       .  A
C1376      C1384   1.387       .  A
C1376      C1387   1.414       .  A
C1377      C1378   1.375       .  A
C1377      H1389   1.083       .  S
C1378      H1390   1.082       .  S
C1379      C1380   1.373       .  A
C1379      H1391   1.083       .  S
C1380      H1392   1.082       .  S
C1381      C1382   1.381       .  A
C1381      H1393   1.082       .  S
C1382      H1394   1.082       .  S
C1383      C1384   1.374       .  A
C1383      H1395   1.082       .  S
C1384      H1396   1.083       .  S
C1385      C1582   1.487       .  S
C1386      C1960   1.413   1_545  A
C1386      C1591   1.484       .  S
C1387      C1962   1.419   1_545  A
C1387      C1567   1.486       .  S
C1388      C1558   1.485       .  S
O1399     Cu1407   1.999       .  S
O1399      C1409   1.277       .  A
O1400     Cu1407   1.997       .  S
O1400      C1410   1.277       .  A
O1401     Cu1407   2.005       .  S
O1401      C1411   1.279       .  A
O1402     Cu1407   2.011       .  S
O1402      C1412   1.279       .  A
O1403     Cu1408   2.013       .  S
O1403      C1412   1.277       .  A
O1404     Cu1408   2.012       .  S
O1404      C1411   1.277       .  A
O1405     Cu1408   2.004       .  S
O1405      C1410   1.277       .  A
O1406     Cu1408   2.004       .  S
O1406      C1409   1.277       .  A
Cu1407    Cu1408   2.364       .  S
C1409      C1531   1.480       .  S
C1410      C1570   1.484       .  S
C1411      C1555   1.495       .  S
C1412      C1543   1.490       .  S
C1413      C1639   1.605       .  S
N1414      C1419   1.355       .  A
N1414      C1418   1.352       .  A
N1414      H1446   1.038       .  S
N1415      C1422   1.348       .  A
N1415      C1423   1.352       .  A
N1416      C1421   1.346       .  A
N1416      C1420   1.347       .  A
N1416      H1447   1.039       .  S
N1417      C2014   1.349       .  A
N1417      C2015   1.351       .  A
C1418      C1426   1.387       .  A
C1418      C1434   1.413       .  A
C1419      C2025   1.417       .  A
C1419      C1427   1.386       .  A
C1420      C1428   1.387       .  A
C1420      C1437   1.404       .  A
C1421      C2026   1.404       .  A
C1421      C1429   1.387       .  A
C1422      C1434   1.413       .  A
C1422      C1430   1.387       .  A
C1423      C1437   1.411       .  A
C1423      C1431   1.384       .  A
C1424      N2007   1.349       .  A
C1424      C1432   1.387       .  A
C1424      C1435   1.413       .  A
C1425      N2007   1.350       .  A
C1425      C1433   1.384       .  A
C1425      C1436   1.409       .  A
C1426      C1427   1.376       .  A
C1426      H1438   1.081       .  S
C1427      H1439   1.082       .  S
C1428      C1429   1.371       .  A
C1428      H1440   1.081       .  S
C1429      H1441   1.083       .  S
C1430      C1431   1.380       .  A
C1430      H1442   1.082       .  S
C1431      H1443   1.082       .  S
C1432      C1433   1.380       .  A
C1432      H1444   1.082       .  S
C1433      H1445   1.082       .  S
C1434      C1534   1.481       .  S
C1435      C2009   1.414   1_545  A
C1435      C1546   1.485       .  S
C1436      C2011   1.405   1_545  A
C1436      C1519   1.479       .  S
C1437      C1507   1.481       .  S
N1448      C1453   1.357       .  A
N1448      H1480   1.038       .  S
N1449      C1456   1.366       .  A
N1449      C1457   1.366       .  A
N1450      C1455   1.359       .  A
N1450      H1481   1.040       .  S
N1451      C1458   1.344       .  A
N1451      C1459   1.345       .  A
C1452      C1460   1.391       .  A
C1452      C1468   1.421       .  A
C1453      C1469   1.414       .  A
C1453      C1461   1.382       .  A
C1454      C1462   1.394       .  A
C1454      C1471   1.426       .  A
C1455      C1470   1.417       .  A
C1455      C1463   1.385       .  A
C1456      C1468   1.441       .  A
C1456      C1464   1.385       .  A
C1457      C1471   1.447       .  A
C1457      C1465   1.388       .  A
C1458      C1466   1.384       .  A
C1458      C1469   1.399       .  A
C1459      C1467   1.389       .  A
C1459      C1470   1.406       .  A
C1460      H1472   1.083       .  S
C1461      H1473   1.083       .  S
C1462      H1474   1.077       .  S
C1463      H1475   1.082       .  S
C1464      C1465   1.389       .  A
C1464      H1476   1.082       .  S
C1465      H1477   1.082       .  S
C1466      C1467   1.368       .  A
C1466      H1478   1.082       .  S
C1467      H1479   1.082       .  S
C1468      C1495   1.523       .  S
C1469      C1522   1.482       .  S
C1470      C1510   1.486       .  S
C1471      C1483   1.519       .  S
C1482      C1486   1.602       .  S
C1482      C1498   1.608       .  S
C1482      C1678   1.598       .  S
C1483      C1484   1.393       .  A
C1484      C1485   1.411       .  A
C1484      H1493   1.085   1_455  S
C1485      C1486   1.458       .  A
C1485      S1489   1.812   1_455  S
C1487      C1488   1.410       .  A
C1487      H1494   1.083       .  S
C1488      S1490   1.803       .  S
S1489      H1492   1.389       .  S
S1490      H1491   1.407       .  S
C1495      C1496   1.405   1_455  A
C1496      C2087   1.415       .  A
C1496      H1505   1.082       .  S
C1497      C2086   1.415       .  A
C1497      C1498   1.435       .  A
C1497      S1501   1.797   1_455  S
C1499      C1500   1.413       .  A
C1499      H1506   1.080   1_545  S
C1500      S1502   1.808       .  S
S1501      H1504   1.406       .  S
S1502      H1503   1.402       .  S
C1507      C1508   1.403       .  A
C1507      C1512   1.416       .  A
C1508      C1509   1.400       .  A
C1508      H1517   1.084       .  S
C1509      C1510   1.411       .  A
C1509      S1513   1.801       .  S
C1511      H1518   1.084   1_455  S
S1513      H1516   1.406       .  S
S1514      H1515   1.401       .  S
C1519      C1520   1.406       .  A
C1519      C1524   1.409       .  A
C1520      C1521   1.399       .  A
C1520      H1529   1.084       .  S
C1521      C1522   1.410       .  A
C1521      S1525   1.806       .  S
C1523      H1530   1.084       .  S
S1525      H1528   1.403       .  S
S1526      H1527   1.406       .  S
C1531      C1532   1.407       .  A
C1531      C1536   1.416       .  A
C1532      C1533   1.401       .  A
C1532      H1541   1.084       .  S
C1533      C1534   1.410       .  A
C1533      S1537   1.803       .  S
C1534      C1535   1.399       .  A
C1535      C1536   1.398       .  A
C1535      H1542   1.083       .  S
C1536      S1538   1.810       .  S
S1537      H1540   1.405       .  S
S1538      H1539   1.407       .  S
C1543      C1544   1.410       .  A
C1543      C1548   1.418       .  A
C1544      C1545   1.401       .  A
C1544      H1553   1.083       .  S
C1545      C1546   1.409       .  A
C1545      S2139   1.804       .  S
C1546      C1547   1.402       .  A
C1547      C1548   1.399       .  A
C1547      H1554   1.084       .  S
C1548      S1550   1.799       .  S
S1549      C2135   1.805       .  S
S1549      H1552   1.406       .  S
S1550      H1551   1.407       .  S
C1555      C1556   1.409       .  A
C1555      C1560   1.423       .  A
C1556      C1557   1.396       .  A
C1556      H1565   1.083       .  S
C1557      C1558   1.411       .  A
C1557      S1561   1.807       .  S
C1558      C1559   1.400       .  A
C1559      C1560   1.403       .  A
C1559      H1566   1.084       .  S
C1560      S1562   1.800       .  S
S1561      H1564   1.405       .  S
S1562      H1563   1.405       .  S
C1567      C1568   1.400       .  A
C1567      C1572   1.409       .  A
C1568      C1569   1.401       .  A
C1568      H1577   1.083       .  S
C1569      C1570   1.419       .  A
C1569      S1573   1.809       .  S
C1570      C1571   1.407       .  A
C1571      C1572   1.398       .  A
C1571      H1578   1.084       .  S
C1572      S2164   1.803       .  S
S1573      H1576   1.406       .  S
S1574      C2162   1.805       .  S
S1574      H1575   1.403       .  S
C1579      C1580   1.405       .  A
C1579      C1584   1.408       .  A
C1580      C1581   1.399       .  A
C1580      H1589   1.084       .  S
C1581      C1582   1.410       .  A
C1581      S1585   1.801       .  S
C1582      C1583   1.407       .  A
C1583      C1584   1.393       .  A
C1583      H1590   1.083       .  S
S1585      H1588   1.405       .  S
S1586      H1587   1.404       .  S
C1591      C1592   1.400       .  A
C1591      C1596   1.413       .  A
C1592      C1593   1.395       .  A
C1592      H1601   1.084       .  S
C1593      C1594   1.415       .  A
C1593      S1597   1.806       .  S
C1594      C1595   1.404       .  A
C1595      C1596   1.402       .  A
C1595      H1602   1.084       .  S
C1596      S2188   1.804       .  S
S1597      H1600   1.402       .  S
S1598      C2186   1.804       .  S
S1598      H1599   1.407       .  S
C1603      C1604   1.405       .  A
C1604      C1605   1.417       .  A
C1604      H1613   1.083   1_455  S
C1605      C1606   1.437       .  A
C1605      S1609   1.807   1_455  S
C1607      C1608   1.409       .  A
C1607      H1614   1.077       .  S
C1608      S1610   1.804       .  S
S1609      H1612   1.406       .  S
S1610      H1611   1.404       .  S
C1615      C1620   1.408   1_455  A
C1616      C2207   1.420       .  A
C1616      H1625   1.082       .  S
C1617      C2206   1.422       .  A
C1617      S1621   1.808       .  S
C1618      C2209   1.427       .  A
C1619      C2208   1.426   1_645  A
C1619      C1620   1.408       .  A
C1619      H1626   1.076       .  S
C1620      S1622   1.805       .  S
S1621      H1624   1.406       .  S
S1622      H1623   1.405       .  S
C1627      C1628   1.401       .  A
C1627      C1632   1.412       .  A
C1628      C1629   1.419       .  A
C1628      H1637   1.082       .  S
C1629      C1630   1.443   1_655  A
C1629      S1633   1.813       .  S
C1630      C1631   1.416   1_455  A
C1631      C1632   1.407       .  A
C1631      H1638   1.076   1_655  S
C1632      S2224   1.804       .  S
S1633      H1636   1.406       .  S
S1634      C2222   1.803   1_545  S
S1634      H1635   1.406       .  S
C1639      C1640   1.420       .  A
C1639      C1644   1.443       .  A
C1640      C1641   1.411       .  A
C1640      H1649   1.078       .  S
C1641      C1642   1.411       .  A
C1641      S1645   1.804       .  S
C1642      C1643   1.401       .  A
C1643      C1644   1.419       .  A
C1643      H1650   1.083       .  S
C1644      S2236   1.809       .  S
S1645      H1648   1.405       .  S
S1646      C2234   1.808   1_545  S
S1646      H1647   1.408       .  S
C1651      C1652   1.407       .  A
C1651      C1656   1.412       .  A
C1652      C1653   1.402       .  A
C1652      H1661   1.084       .  S
C1653      C1654   1.410       .  A
C1653      S1657   1.804       .  S
C1654      C1655   1.404       .  A
C1655      C1656   1.400       .  A
C1655      H1662   1.084       .  S
C1656      S1658   1.802       .  S
S1657      H1660   1.405       .  S
S1658      H1659   1.403       .  S
C1663      C1664   1.398       .  A
C1663      C1668   1.418       .  A
C1664      C1665   1.398       .  A
C1664      H1673   1.084       .  S
C1665      C1666   1.417       .  A
C1665      S1669   1.805       .  S
C1666      C1667   1.400       .  A
C1667      C1668   1.401       .  A
C1667      H1674   1.084       .  S
C1668      S1670   1.805       .  S
S1669      H1672   1.404       .  S
S1670      H1671   1.405       .  S
C1675      C1676   1.401       .  A
C1675      C1680   1.416       .  A
C1676      C1677   1.420       .  A
C1676      H1685   1.082       .  S
C1677      C1678   1.444   1_655  A
C1677      S2271   1.812       .  S
C1678      C1679   1.415   1_455  A
C1679      C1680   1.413       .  A
C1679      H1686   1.073   1_655  S
C1680      S1682   1.804       .  S
S1681      C2267   1.812   1_545  S
S1681      H1684   1.406       .  S
S1682      H1683   1.406       .  S
C1687      C1688   1.402       .  A
C1687      C1692   1.415       .  A
C1688      C1689   1.423       .  A
C1688      H1697   1.082       .  S
C1689      C1690   1.444       .  A
C1689      S1693   1.813       .  S
C1690      C1691   1.419       .  A
C1691      C1692   1.412       .  A
C1691      H1698   1.079       .  S
C1692      S2284   1.805       .  S
S1693      H1696   1.406       .  S
S1694      C2282   1.803   1_545  S
S1694      H2285   1.405       .  S
H1695      S2284   1.406       .  S
C1699      C2290   1.408       .  A
C1699      C1704   1.414       .  A
C1700      C2289   1.407       .  A
C1700      C1701   1.389       .  A
C1700      H1709   1.083       .  S
C1701      C2292   1.405       .  A
C1701      S1705   1.804       .  S
C1702      C2291   1.408       .  A
C1702      C1703   1.406       .  A
C1703      C1704   1.405       .  A
C1703      H1710   1.083   1_565  S
C1704      S1706   1.808   1_565  S
S1705      H1708   1.403       .  S
S1706      H1707   1.407       .  S
C1711      C1712   1.407       .  A
C1711      C2306   1.422       .  A
C1712      C1713   1.400       .  A
C1712      H1721   1.084       .  S
C1713      C1714   1.412       .  A
C1713      S1717   1.803   1_565  S
C1714      C2305   1.400       .  A
C1715      C2304   1.401       .  A
C1715      C1716   1.402       .  A
C1715      H1722   1.084       .  S
C1716      C2301   1.421       .  A
C1716      S1718   1.801       .  S
S1717      H1720   1.406       .  S
S1718      H1719   1.404       .  S
C1723      C1724   1.405       .  A
C1723      C1728   1.409       .  A
C1724      C1725   1.401       .  A
C1724      H2323   1.084       .  S
C1725      C1726   1.409       .  A
C1725      S2319   1.802       .  S
C1726      C1727   1.403       .  A
C1727      C1728   1.394       .  A
C1727      H1734   1.084       .  S
C1728      S1730   1.801       .  S
S1729      C2315   1.800       .  S
S1729      H1732   1.405       .  S
S1730      H1731   1.404       .  S
H1733      C2314   1.084       .  S
C1735      C1736   1.400       .  A
C1735      C1740   1.418       .  A
C1736      C1737   1.402       .  A
C1736      H1745   1.084       .  S
C1737      C1738   1.418       .  A
C1737      S1741   1.805       .  S
C1738      C1739   1.399       .  A
C1739      C1740   1.399       .  A
C1739      H1746   1.084       .  S
C1740      S1742   1.804       .  S
S1741      H1744   1.403       .  S
S1742      H1743   1.406       .  S
C1747      C2338   1.398       .  A
C1747      C1752   1.413   1_565  A
C1748      C2337   1.399       .  A
C1748      C1749   1.396       .  A
C1748      H1757   1.084       .  S
C1749      C2340   1.417       .  A
C1749      S1753   1.801       .  S
C1750      C2339   1.421       .  A
C1750      C1751   1.406       .  A
C1751      C1752   1.401   1_565  A
C1751      H1758   1.084   1_565  S
C1752      S1754   1.802       .  S
S1753      H1756   1.405       .  S
S1754      H1755   1.406       .  S
C1759      C2350   1.401       .  A
C1759      C1764   1.409       .  A
C1760      C2349   1.400       .  A
C1760      C1761   1.402       .  A
C1760      H1769   1.084       .  S
C1761      C2352   1.424       .  A
C1761      S1765   1.802       .  S
C1762      C2351   1.423       .  A
C1762      C1763   1.408       .  A
C1763      C1764   1.395       .  A
C1763      H1770   1.083   1_565  S
C1764      S1766   1.804   1_565  S
S1765      H1768   1.408       .  S
S1766      H1767   1.406       .  S
N1771      C1776   1.351       .  A
N1771      H1803   1.039       .  S
N1772      C1780   1.350       .  A
N1773      C1777   1.345   1_455  A
N1773      H1804   1.040       .  S
N1774      C1782   1.350       .  A
C1775      C1783   1.387       .  A
C1775      C1791   1.414   1_455  A
C1776      C1792   1.415       .  A
C1776      C1784   1.389       .  A
C1777      C1785   1.389       .  A
C1777      C1794   1.404       .  A
C1778      C1793   1.401       .  A
C1778      C1786   1.386       .  A
C1779      C1791   1.410       .  A
C1779      C1787   1.386       .  A
C1780      C1794   1.412       .  A
C1780      C1788   1.385       .  A
C1781      C1789   1.388       .  A
C1781      C1792   1.415       .  A
C1782      C1790   1.385       .  A
C1782      C1793   1.411       .  A
C1783      H1795   1.082   1_455  S
C1784      H1796   1.082       .  S
C1785      H1797   1.082       .  S
C1786      H1798   1.083       .  S
C1787      H1799   1.082       .  S
C1788      H1800   1.082       .  S
C1789      H1801   1.082       .  S
C1790      H1802   1.082       .  S
C1791      C2337   1.482       .  S
C1792      C2349   1.483       .  S
C1793      C2325   1.482       .  S
C1794      C2313   1.476       .  S
O1805     Cu1813   2.008       .  S
O1806     Cu1813   2.012   1_554  S
O1807     Cu1813   2.010   1_554  S
O1808     Cu1813   2.007       .  S
O1809     Cu1814   2.007       .  S
O1809      C1818   1.276       .  A
O1810     Cu1814   2.013   1_554  S
O1810      C1817   1.280       .  A
O1811     Cu1814   2.002   1_554  S
O1811      C1816   1.277       .  A
O1812     Cu1814   2.002       .  S
O1812      C1815   1.278       .  A
C1815      C2301   1.488       .  S
C1816      C2340   1.479       .  S
C1817      C2352   1.495       .  S
C1818      C2289   1.484       .  S
N1819      C1824   1.358       .  A
N1819      C1823   1.347       .  A
N1819      H1851   1.042       .  S
N1820      C1827   1.366       .  A
N1820      C1828   1.366       .  A
N1821      C1826   1.358       .  A
N1821      C1825   1.354       .  A
N1821      H1852   1.040       .  S
N1822      C1829   1.342       .  A
N1822      C1830   1.340       .  A
C1823      C1831   1.390       .  A
C1823      C1839   1.416       .  A
C1824      C1840   1.414       .  A
C1824      C1832   1.384       .  A
C1825      C1833   1.393       .  A
C1825      C1842   1.426       .  A
C1826      C1841   1.414       .  A
C1826      C1834   1.380       .  A
C1827      C1839   1.442       .  A
C1827      C1835   1.386       .  A
C1828      C1842   1.445       .  A
C1828      C1836   1.387       .  A
C1829      C1837   1.387   1_565  A
C1829      C1840   1.399       .  A
C1830      C1838   1.388   1_565  A
C1830      C1841   1.397       .  A
C1831      C1832   1.379       .  A
C1831      H1843   1.082       .  S
C1832      H1844   1.082       .  S
C1833      C1834   1.373       .  A
C1833      H1845   1.079       .  S
C1834      H1846   1.082       .  S
C1835      C1836   1.392       .  A
C1835      H1847   1.082       .  S
C1836      H1848   1.082       .  S
C1837      C1838   1.367       .  A
C1837      H1849   1.082       .  S
C1838      H1850   1.082       .  S
C1839      C2277   1.515       .  S
C1840      C2328   1.482       .  S
C1841      C2316   1.480       .  S
C1842      C2265   1.524       .  S
N1853      C1857   1.351       .  A
N1853      H1885   1.038       .  S
N1854      C1862   1.348       .  A
N1855      C1859   1.348   1_455  A
N1855      H1886   1.038       .  S
N1856      C1864   1.352       .  A
C1857      C1865   1.390       .  A
C1857      C1873   1.416   1_455  A
C1858      C1874   1.414       .  A
C1858      C1866   1.388       .  A
C1859      C1867   1.388   1_655  A
C1859      C1876   1.407       .  A
C1860      C1875   1.402       .  A
C1860      C1868   1.386       .  A
C1861      C1873   1.413       .  A
C1861      C1869   1.388       .  A
C1862      C1876   1.411       .  A
C1862      C1870   1.386       .  A
C1863      C1871   1.386       .  A
C1863      C1874   1.412       .  A
C1864      C1872   1.385       .  A
C1864      C1875   1.414       .  A
C1865      H1877   1.082       .  S
C1866      H1878   1.082       .  S
C1867      H1879   1.082   1_455  S
C1868      H1880   1.082       .  S
C1869      H1881   1.082       .  S
C1870      H1882   1.082       .  S
C1871      H1883   1.082       .  S
C1872      H1884   1.082       .  S
C1873      C2292   1.476       .  S
C1874      C2304   1.486       .  S
C1875      C2253   1.486       .  S
C1876      C2241   1.476       .  S
N1887      C1892   1.350       .  A
N1887      C1891   1.356       .  A
N1887      H1919   1.040       .  S
N1888      C1895   1.342       .  A
N1888      C1896   1.340       .  A
N1889      C1894   1.354       .  A
N1889      C1893   1.362       .  A
N1889      H1920   1.033       .  S
N1890      C1897   1.364       .  A
N1890      C1898   1.363       .  A
C1891      C1899   1.384       .  A
C1891      C1907   1.411       .  A
C1892      C1908   1.413       .  A
C1892      C1900   1.389       .  A
C1893      C1901   1.381       .  A
C1893      C1910   1.422       .  A
C1894      C1909   1.431       .  A
C1894      C1902   1.392       .  A
C1895      C1907   1.398       .  A
C1895      C1903   1.387   1_565  A
C1896      C1910   1.400       .  A
C1896      C1904   1.388   1_565  A
C1897      C1905   1.385       .  A
C1897      C1908   1.435       .  A
C1898      C1906   1.388       .  A
C1898      C1909   1.441       .  A
C1899      C1900   1.375       .  A
C1899      H1911   1.082       .  S
C1900      H1912   1.082       .  S
C1901      C1902   1.381       .  A
C1901      H1913   1.082       .  S
C1902      H1914   1.080       .  S
C1903      C1904   1.367       .  A
C1903      H1915   1.082       .  S
C1904      H1916   1.082       .  S
C1905      C1906   1.389       .  A
C1905      H1917   1.082       .  S
C1906      H1918   1.082       .  S
C1907      C2244   1.476       .  S
C1908      C2217   1.512       .  S
C1909      C2232   1.519       .  S
C1910      C2256   1.490       .  S
N1921      C1926   1.357       .  A
N1921      C1925   1.353       .  A
N1921      H1953   1.040       .  S
N1922      C1929   1.365       .  A
N1922      C1930   1.363       .  A
N1923      C1928   1.360       .  A
N1923      C1927   1.352       .  A
N1923      H1954   1.040       .  S
N1924      C1931   1.341       .  A
N1924      C1932   1.343       .  A
C1925      C1933   1.390       .  A
C1926      C1942   1.417       .  A
C1926      C1934   1.383       .  A
C1927      C1935   1.389       .  A
C1928      C1943   1.420       .  A
C1928      C1936   1.384       .  A
C1929      C1941   1.439       .  A
C1929      C1937   1.386       .  A
C1930      C1944   1.437       .  A
C1930      C1938   1.386       .  A
C1931      C1939   1.385       .  A
C1931      C1942   1.400       .  A
C1932      C1940   1.389       .  A
C1932      C1943   1.403       .  A
C1933      C1934   1.379       .  A
C1933      H1945   1.079       .  S
C1934      H1946   1.082       .  S
C1935      C1936   1.379       .  A
C1935      H1947   1.083       .  S
C1936      H1948   1.082       .  S
C1937      C1938   1.388       .  A
C1937      H1949   1.082       .  S
C1938      H1950   1.082       .  S
C1939      C1940   1.371       .  A
C1939      H1951   1.082       .  S
C1940      H1952   1.082       .  S
C1941      C2205   1.518       .  S
C1942      C2184   1.487       .  S
C1943      C2169   1.489       .  S
C1944      C2193   1.517       .  S
N1955      C1960   1.352       .  A
N1955      C1959   1.353       .  A
N1955      H1987   1.036       .  S
N1956      C1963   1.354       .  A
N1956      C1964   1.353       .  A
N1957      C1962   1.356       .  A
N1957      C1961   1.356       .  A
N1957      H1988   1.035       .  S
C1959      C1967   1.388       .  A
C1959      C1975   1.412       .  A
C1960      C1968   1.388       .  A
C1961      C1969   1.388       .  A
C1961      C1978   1.420       .  A
C1962      C1970   1.388       .  A
C1963      C1975   1.416       .  A
C1963      C1971   1.384       .  A
C1964      C1978   1.420       .  A
C1964      C1972   1.387       .  A
C1965      C1973   1.384       .  A
C1965      C1976   1.410       .  A
C1966      C1974   1.387       .  A
C1966      C1977   1.412       .  A
C1967      C1968   1.363       .  A
C1967      H1979   1.082       .  S
C1968      H1980   1.082       .  S
C1969      C1970   1.371       .  A
C1969      H1981   1.082       .  S
C1970      H1982   1.082       .  S
C1971      C1972   1.379       .  A
C1971      H1983   1.082       .  S
C1972      H1984   1.082       .  S
C1973      C1974   1.382       .  A
C1973      H1985   1.082       .  S
C1974      H1986   1.082       .  S
C1975      C2172   1.491       .  S
C1976      C2181   1.484       .  S
C1977      C2157   1.481       .  S
C1978      C2148   1.496       .  S
O1989     Cu1997   2.041       .  S
O1989      C1999   1.281       .  A
O1990     Cu1997   2.027       .  S
O1990      C2000   1.282       .  A
O1991     Cu1997   2.030       .  S
O1991      C2001   1.280       .  A
O1992     Cu1997   2.022       .  S
O1992      C2002   1.279       .  A
O1993     Cu1998   2.016       .  S
O1993      C2002   1.279       .  A
O1994     Cu1998   2.020       .  S
O1994      C2001   1.279       .  A
O1995     Cu1998   1.983       .  S
O1995      C2000   1.272       .  A
O1996     Cu1998   1.983       .  S
O1996      C1999   1.276       .  A
Cu1997    Cu1998   2.363       .  S
C1999      C2121   1.499       .  S
C2000      C2160   1.492       .  S
C2001      C2145   1.491       .  S
C2002      C2133   1.487       .  S
C2003      C2229   1.608       .  S
N2004      C2009   1.352       .  A
N2004      C2008   1.352       .  A
N2004      H2036   1.039       .  S
N2005      C2012   1.352       .  A
N2005      C2013   1.352       .  A
N2006      C2011   1.349       .  A
N2006      C2010   1.350       .  A
N2006      H2037   1.038       .  S
C2008      C2016   1.386       .  A
C2008      C2024   1.412       .  A
C2009      C2017   1.387       .  A
C2010      C2018   1.388       .  A
C2010      C2027   1.408       .  A
C2011      C2019   1.385       .  A
C2012      C2024   1.416       .  A
C2012      C2020   1.386       .  A
C2013      C2027   1.415       .  A
C2013      C2021   1.385       .  A
C2014      C2022   1.387       .  A
C2014      C2025   1.415       .  A
C2015      C2023   1.384       .  A
C2015      C2026   1.413       .  A
C2016      C2017   1.373       .  A
C2016      H2028   1.082       .  S
C2017      H2029   1.082   1_565  S
C2018      C2019   1.370       .  A
C2018      H2030   1.081       .  S
C2019      H2031   1.082   1_565  S
C2020      C2021   1.382       .  A
C2020      H2032   1.082       .  S
C2021      H2033   1.082       .  S
C2022      C2023   1.380       .  A
C2022      H2034   1.082       .  S
C2023      H2035   1.082       .  S
C2024      C2124   1.493       .  S
C2025      C2136   1.495       .  S
C2026      C2109   1.481       .  S
C2027      C2097   1.484       .  S
N2038      C2043   1.355       .  A
N2038      H2070   1.040       .  S
N2039      C2046   1.365       .  A
N2039      C2047   1.362       .  A
N2040      C2045   1.360       .  A
N2040      H2071   1.035       .  S
N2041      C2048   1.345       .  A
N2041      C2049   1.345       .  A
C2042      C2050   1.388       .  A
C2042      C2058   1.412       .  A
C2043      C2059   1.413       .  A
C2043      C2051   1.386       .  A
C2044      C2052   1.394       .  A
C2044      C2061   1.427       .  A
C2045      C2060   1.420       .  A
C2045      C2053   1.383       .  A
C2046      C2058   1.438       .  A
C2046      C2054   1.385       .  A
C2047      C2061   1.440       .  A
C2047      C2055   1.388       .  A
C2048      C2056   1.385       .  A
C2048      C2059   1.403       .  A
C2049      C2057   1.389       .  A
C2049      C2060   1.407       .  A
C2050      H2062   1.082       .  S
C2051      H2063   1.082       .  S
C2052      H2064   1.080       .  S
C2053      H2065   1.082       .  S
C2054      C2055   1.389       .  A
C2054      H2066   1.082       .  S
C2055      H2067   1.082       .  S
C2056      C2057   1.367       .  A
C2056      H2068   1.083       .  S
C2057      H2069   1.082       .  S
C2058      C2085   1.512       .  S
C2059      C2112   1.484       .  S
C2060      C2100   1.486       .  S
C2061      C2073   1.513       .  S
C2072      C2076   1.600       .  S
C2072      C2088   1.613       .  S
C2072      C2268   1.593   1_455  S
C2073      C2074   1.394   1_455  A
C2074      C2075   1.412       .  A
C2074      H2083   1.085       .  S
C2075      C2076   1.458   1_655  A
C2075      S2079   1.818       .  S
C2077      C2078   1.411       .  A
C2077      H2084   1.082       .  S
C2078      S2080   1.803       .  S
S2079      H2082   1.386       .  S
S2080      H2081   1.406       .  S
C2085      C2086   1.402       .  A
C2086      H2095   1.083   1_455  S
C2087      C2088   1.434   1_645  A
C2087      S2091   1.795   1_545  S
C2089      C2090   1.419       .  A
C2089      H2096   1.077       .  S
C2090      S2092   1.803       .  S
S2091      H2094   1.406   1_565  S
S2092      H2093   1.403       .  S
C2097      C2098   1.401       .  A
C2097      C2102   1.411       .  A
C2098      C2099   1.398       .  A
C2098      H2107   1.084       .  S
C2099      C2100   1.416       .  A
C2099      S2103   1.808       .  S
C2101      H2108   1.084       .  S
S2103      H2106   1.402       .  S
S2104      H2105   1.406       .  S
C2109      C2110   1.397       .  A
C2109      C2114   1.418       .  A
C2110      C2111   1.395       .  A
C2110      H2119   1.084       .  S
C2111      C2112   1.416       .  A
C2111      S2115   1.806       .  S
C2113      H2120   1.084       .  S
S2115      H2118   1.405       .  S
S2116      H2117   1.406       .  S
C2121      C2122   1.407       .  A
C2121      C2126   1.421       .  A
C2122      C2123   1.392       .  A
C2122      H2131   1.083       .  S
C2123      C2124   1.412       .  A
C2123      S2127   1.806       .  S
C2124      C2125   1.405       .  A
C2125      C2126   1.414       .  A
C2125      H2132   1.083       .  S
C2126      S2128   1.805       .  S
S2127      H2130   1.405       .  S
S2128      H2129   1.407       .  S
C2133      C2134   1.406       .  A
C2133      C2138   1.415       .  A
C2134      C2135   1.405       .  A
C2134      H2143   1.084       .  S
C2135      C2136   1.417       .  A
C2136      C2137   1.402       .  A
C2137      C2138   1.398       .  A
C2137      H2144   1.084       .  S
C2138      S2140   1.802       .  S
S2139      H2142   1.405       .  S
S2140      H2141   1.408       .  S
C2145      C2146   1.406       .  A
C2145      C2150   1.419       .  A
C2146      C2147   1.407       .  A
C2146      H2155   1.084       .  S
C2147      C2148   1.416       .  A
C2147      S2151   1.803       .  S
C2148      C2149   1.399       .  A
C2149      C2150   1.399       .  A
C2149      H2156   1.084       .  S
C2150      S2152   1.799       .  S
S2151      H2154   1.406       .  S
S2152      H2153   1.403       .  S
C2157      C2158   1.398       .  A
C2157      C2162   1.409       .  A
C2158      C2159   1.401       .  A
C2158      H2167   1.083       .  S
C2159      C2160   1.426       .  A
C2159      S2163   1.813       .  S
C2160      C2161   1.408       .  A
C2161      C2162   1.399       .  A
C2161      H2168   1.083       .  S
S2163      H2166   1.407       .  S
S2164      H2165   1.405       .  S
C2169      C2170   1.403       .  A
C2169      C2174   1.413       .  A
C2170      C2171   1.398       .  A
C2170      H2179   1.084       .  S
C2171      C2172   1.414       .  A
C2171      S2175   1.803       .  S
C2172      C2173   1.407       .  A
C2173      C2174   1.404       .  A
C2173      H2180   1.084       .  S
S2175      H2178   1.403       .  S
S2176      H2177   1.406       .  S
C2181      C2182   1.399       .  A
C2181      C2186   1.416       .  A
C2182      C2183   1.400       .  A
C2182      H2191   1.084       .  S
C2183      C2184   1.418       .  A
C2183      S2187   1.805       .  S
C2184      C2185   1.400       .  A
C2185      C2186   1.400       .  A
C2185      H2192   1.084       .  S
S2187      H2190   1.406       .  S
S2188      H2189   1.405       .  S
C2193      C2194   1.405   1_455  A
C2194      C2195   1.414       .  A
C2194      H2203   1.083       .  S
C2195      C2196   1.435   1_655  A
C2195      S2199   1.808       .  S
C2197      C2198   1.414       .  A
C2197      H2204   1.077       .  S
C2198      S2200   1.803       .  S
S2199      H2202   1.406       .  S
S2200      H2201   1.406       .  S
C2205      C2210   1.410       .  A
C2206      H2215   1.082       .  S
C2207      S2211   1.806   1_545  S
C2209      C2210   1.411       .  A
C2209      H2216   1.077   1_455  S
C2210      S2212   1.805   1_455  S
S2211      H2214   1.407   1_565  S
S2212      H2213   1.406       .  S
C2217      C2218   1.400       .  A
C2217      C2222   1.415       .  A
C2218      C2219   1.417       .  A
C2218      H2227   1.083       .  S
C2219      C2220   1.440       .  A
C2219      S2223   1.810       .  S
C2220      C2221   1.418       .  A
C2221      C2222   1.411       .  A
C2221      H2228   1.078   1_565  S
S2223      H2226   1.407       .  S
S2224      H2225   1.406       .  S
C2229      C2230   1.421       .  A
C2229      C2234   1.446       .  A
C2230      C2231   1.411       .  A
C2230      H2239   1.077       .  S
C2231      C2232   1.411       .  A
C2231      S2235   1.804       .  S
C2232      C2233   1.401       .  A
C2233      C2234   1.420       .  A
C2233      H2240   1.083   1_565  S
S2235      H2238   1.406       .  S
S2236      H2237   1.407       .  S
C2241      C2242   1.406       .  A
C2241      C2246   1.410       .  A
C2242      C2243   1.396   1_565  A
C2242      H2251   1.084   1_565  S
C2243      C2244   1.408   1_545  A
C2243      S2247   1.805       .  S
C2244      C2245   1.403       .  A
C2245      C2246   1.395       .  A
C2245      H2252   1.084       .  S
C2246      S2248   1.804       .  S
S2247      H2250   1.404       .  S
S2248      H2249   1.401       .  S
C2253      C2254   1.398       .  A
C2253      C2258   1.418       .  A
C2254      C2255   1.401       .  A
C2254      H2263   1.084       .  S
C2255      C2256   1.420       .  A
C2255      S2259   1.804       .  S
C2256      C2257   1.400       .  A
C2257      C2258   1.400       .  A
C2257      H2264   1.084   1_565  S
C2258      S2260   1.805   1_565  S
S2259      H2262   1.404       .  S
S2260      H2261   1.405       .  S
C2265      C2266   1.404       .  A
C2265      C2270   1.416       .  A
C2266      C2267   1.422       .  A
C2266      H2275   1.082   1_565  S
C2267      C2268   1.441       .  A
C2268      C2269   1.417       .  A
C2269      C2270   1.414       .  A
C2269      H2276   1.079       .  S
C2270      S2272   1.804       .  S
S2271      H2274   1.407       .  S
S2272      H2273   1.406       .  S
C2277      C2278   1.402       .  A
C2277      C2282   1.416       .  A
C2278      C2279   1.419       .  A
C2278      H2287   1.083       .  S
C2279      C2280   1.439       .  A
C2279      S2283   1.807       .  S
C2280      C2281   1.418       .  A
C2281      C2282   1.408       .  A
C2281      H2288   1.078   1_565  S
S2283      H2286   1.408       .  S
C2289      C2294   1.418       .  A
C2290      C2291   1.398       .  A
C2290      H2299   1.084       .  S
C2291      S2295   1.804       .  S
C2292      C2293   1.402       .  A
C2293      C2294   1.406       .  A
C2293      H2300   1.083       .  S
C2294      S2296   1.807       .  S
S2295      H2298   1.405       .  S
S2296      H2297   1.407       .  S
C2301      C2302   1.405       .  A
C2302      C2303   1.397       .  A
C2302      H2311   1.083       .  S
C2303      C2304   1.412       .  A
C2303      S2307   1.804       .  S
C2305      C2306   1.402       .  A
C2305      H2312   1.084       .  S
C2306      S2308   1.800       .  S
S2307      H2310   1.407       .  S
S2308      H2309   1.408       .  S
C2313      C2314   1.406   1_565  A
C2313      C2318   1.409       .  A
C2314      C2315   1.397       .  A
C2315      C2316   1.407   1_545  A
C2316      C2317   1.404       .  A
C2317      C2318   1.395       .  A
C2317      H2324   1.084       .  S
C2318      S2320   1.803       .  S
S2319      H2322   1.405       .  S
S2320      H2321   1.403       .  S
C2325      C2326   1.399       .  A
C2325      C2330   1.417       .  A
C2326      C2327   1.400       .  A
C2326      H2335   1.084       .  S
C2327      C2328   1.417       .  A
C2327      S2331   1.805       .  S
C2328      C2329   1.399       .  A
C2329      C2330   1.396       .  A
C2329      H2336   1.084   1_565  S
C2330      S2332   1.805   1_565  S
S2331      H2334   1.403       .  S
S2332      H2333   1.407       .  S
C2337      C2342   1.411       .  A
C2338      C2339   1.399       .  A
C2338      H2347   1.084       .  S
C2339      S2343   1.799       .  S
C2340      C2341   1.406       .  A
C2341      C2342   1.399       .  A
C2341      H2348   1.084       .  S
C2342      S2344   1.804       .  S
S2343      H2346   1.404       .  S
S2344      H2345   1.406       .  S
C2349      C2354   1.409       .  A
C2350      C2351   1.403       .  A
C2350      H2359   1.084       .  S
C2351      S2355   1.800       .  S
C2352      C2353   1.409       .  A
C2353      C2354   1.397       .  A
C2353      H2360   1.083       .  S
C2354      S2356   1.805       .  S
S2355      H2358   1.407       .  S
S2356      H2357   1.404       .  S
