geometry optimzed in LAMMPS
_audit_creation_date              2020-11-30 
_audit_creation_method            'lammps2cif' 
_symmetry_space_group_name_H-M    'P1' 
_symmetry_Int_Tables_number       1 
_symmetry_cell_setting            triclinic 
loop_ 
_symmetry_equiv_pos_as_xyz 
  x,y,z 
_cell_length_a                    16.175831668114697 
_cell_length_b                    16.20621827080709 
_cell_length_c                    54.64984700098464 
_cell_angle_alpha                 90.41148904940195 
_cell_angle_beta                  90.24660853560471 
_cell_angle_gamma                 90.40093679947466 
loop_ 
_atom_site_label 
_atom_site_type_symbol 
_atom_site_fract_x 
_atom_site_fract_y 
_atom_site_fract_z 
_atom_site_charge 
C1          C  0.04306859  0.97826593  0.06134111     0.05220
C2          C  0.45848610  0.47954875  0.06131337     0.05220
C3          C  0.20682001  0.00091169  0.00380923     0.05220
C4          C  0.29331588  0.00120511  0.00379521     0.05220
O5          O  0.16589050  0.44898132  0.13123738    -0.68290
O6          O  0.33872740  0.43744166  0.18333411    -0.69270
O7          O  0.17092575  0.43302310  0.18410336    -0.57890
O8          O  0.33589526  0.45272549  0.13052780    -0.66300
O9          O  0.33549989  0.08912288  0.13431106    -0.65850
O10         O  0.16946526  0.07150617  0.18766459    -0.57110
O11         O  0.33704400  0.07413339  0.18699249    -0.69610
O12         O  0.16465778  0.08693621  0.13504296    -0.68390
Cu13       Cu  0.25293035  0.43823647  0.15707923     1.04560
Cu14       Cu  0.25163672  0.08519815  0.16103617     1.04330
C15         C  0.14113325  0.51965173  0.12416891     0.97910
C16         C  0.35829564  0.50374388  0.19472278     0.97050
C17         C  0.15160627  0.49811804  0.19592942     0.89190
C18         C  0.35624504  0.52424660  0.12283759     0.95460
C19         C  0.45643238  0.02268289  0.94607692     0.05220
C20         C  0.04232159  0.02229936  0.94610380     0.05220
O21         O  0.16422751  0.04834275  0.87664824    -0.68290
O22         O  0.33089546  0.06477387  0.82341559    -0.69270
O23         O  0.16308663  0.06310285  0.82383574    -0.57890
O24         O  0.33423091  0.04977416  0.87628516    -0.66300
O25         O  0.33510217  0.41290092  0.87238593    -0.65850
O26         O  0.16306689  0.42606660  0.82028174    -0.57110
O27         O  0.33068414  0.42777445  0.81972076    -0.69610
O28         O  0.16417105  0.41140787  0.87297123    -0.68390
Cu29       Cu  0.24811925  0.06129086  0.85026058     1.04560
Cu30       Cu  0.24827224  0.41475493  0.84631063     1.04330
C31         C  0.14227337  0.97717129  0.88425111     0.97910
C32         C  0.34983515  0.99918277  0.81177247     0.97050
C33         C  0.14309566  0.99704470  0.81239727     0.89190
C34         C  0.35748180  0.97893965  0.88363678     0.95460
O35         O  0.09139712  0.17203209  0.63373451    -0.68290
O36         O  0.07578363  0.34016364  0.68700307    -0.69270
O37         O  0.07833846  0.17281992  0.68654280    -0.57890
O38         O  0.08918260  0.34266742  0.63439091    -0.66300
O39         O  0.45225685  0.33881005  0.63090320    -0.65850
O40         O  0.44111896  0.17033874  0.68353726    -0.57110
O41         O  0.43857218  0.33783728  0.68369568    -0.69610
O42         O  0.45442507  0.16910596  0.63064001    -0.68390
Cu43       Cu  0.08847673  0.25697288  0.66042947     1.04560
Cu44       Cu  0.44178834  0.25388036  0.65699298     1.04330
C45         C  0.02553785  0.14836266  0.62274163     0.97910
C46         C  0.00444235  0.35877354  0.69506371     0.97050
C47         C  0.00759020  0.15225495  0.69476604     0.89190
C48         C  0.02291689  0.36335287  0.62336713     0.95460
C49         C  0.97840841  0.04442689  0.56121096     0.05220
C50         C  0.97744405  0.45920973  0.56117429     0.05220
C51         C  0.99958307  0.20726248  0.50368759     0.05220
C52         C  0.99894429  0.29358698  0.50367090     0.05220
C53         C  0.99629632  0.50750794  0.75346548     0.02170
C54         C  0.02218956  0.04158725  0.44621913     0.05220
C55         C  0.02036799  0.45644905  0.44617357     0.05220
O56         O  0.06245928  0.16370955  0.32346459    -0.68290
O57         O  0.04455817  0.33050179  0.37701604    -0.69270
O58         O  0.04874038  0.16085462  0.37628250    -0.57890
O59         O  0.05762249  0.33117462  0.32412180    -0.66300
O60         O  0.41973048  0.32771779  0.32129144    -0.65850
O61         O  0.41105269  0.15505990  0.37261116    -0.57110
O62         O  0.40713733  0.32558330  0.37414237    -0.69610
O63         O  0.42431262  0.16042226  0.32005324    -0.68390
Cu64       Cu  0.05816380  0.24676071  0.35042080     1.04560
Cu65       Cu  0.41075955  0.24211236  0.34701410     1.04330
C66         C  0.99684865  0.14259579  0.31196470     0.97910
C67         C  0.97318550  0.34988712  0.38504115     0.97050
C68         C  0.97833184  0.13504325  0.38360653     0.89190
C69         C  0.99074012  0.34905378  0.31298426     0.95460
C70         C  0.00449181  0.49269472  0.25393375     0.02170
C71         C  0.99927209  0.42349615  0.27059037    -0.08620
C72         C  0.99511336  0.38743699  0.28967580    -0.10180
C73         C  0.00349213  0.10336236  0.28871382    -0.08620
C74         C  0.00588096  0.06457829  0.26995135    -0.10180
C75         C  0.96542565  0.39631609  0.40805943    -0.11780
C76         C  0.03053847  0.41136446  0.42276090    -0.26950
H77         H  0.90399830  0.41454124  0.41386573     0.17240
H78         H  0.59193150  0.39025739  0.41786232     0.17820
C79         C  0.97194844  0.08643717  0.40599848    -0.11780
C80         C  0.03264070  0.08582237  0.42281185    -0.26950
H81         H  0.41223090  0.05693062  0.41000667     0.17240
H82         H  0.08862522  0.12207293  0.42020266     0.17820
C83         C  0.00748096  0.34559332  0.48202466    -0.08620
C84         C  0.01297872  0.40159934  0.46723536    -0.10180
C85         C  0.01509846  0.09745533  0.46730504    -0.08620
C86         C  0.00899732  0.15417694  0.48207227    -0.10180
C87         C  0.98413551  0.40339763  0.54007085    -0.08620
C88         C  0.98985592  0.34667044  0.52529484    -0.10180
C89         C  0.98536592  0.09931208  0.54014036    -0.08620
C90         C  0.99087437  0.15528064  0.52533656    -0.10180
C91         C  0.96734299  0.41496639  0.58457679    -0.11780
C92         C  0.02957501  0.41129021  0.60083596    -0.26950
H93         H  0.40968497  0.38190426  0.58776585     0.17240
H94         H  0.08927632  0.43809425  0.59637709     0.17820
C95         C  0.96847915  0.08948681  0.58464734    -0.11780
C96         C  0.03290773  0.10111901  0.59986774    -0.26950
H97         H  0.40810683  0.11430647  0.58900427     0.17240
H98         H  0.09388854  0.08024201  0.59448156     0.17820
C99         C  0.99827054  0.39829461  0.71828248    -0.08620
C100        C  0.99561433  0.43657512  0.73713225    -0.10180
C101        C  0.99910733  0.07759171  0.73711844    -0.08620
C102        C  0.00261834  0.11417871  0.71811141    -0.10180
C103        C  0.42514536  0.00838230  0.76950326    -0.08620
C104        C  0.38769272  0.00567623  0.78840327    -0.10180
C105        C  0.10362274  0.00271767  0.78917022    -0.08620
C106        C  0.06630112  0.00603944  0.77017468    -0.10180
C107        C  0.41129463  0.03328321  0.92268592    -0.11780
C108        C  0.40583205  0.97151060  0.90625100    -0.26950
H109        H  0.37944633  0.09112347  0.91963302     0.17240
H110        H  0.43079220  0.41104123  0.91071054     0.17820
C111        C  0.08699195  0.03276184  0.92274458    -0.11780
C112        C  0.09564509  0.96929190  0.90707855    -0.26950
H113        H  0.11444069  0.09260974  0.91889494     0.17240
H114        H  0.07285367  0.40817467  0.91202797     0.17820
C115        C  0.39807268  0.49858642  0.21792725    -0.08620
C116        C  0.43494042  0.49521411  0.23700717    -0.10180
C117        C  0.11405475  0.49079019  0.21931291    -0.08620
C118        C  0.07624714  0.48893528  0.23815450    -0.10180
C119        C  0.34551171  0.01013974  0.98211707    -0.08620
C120        C  0.40144121  0.01582288  0.96721490    -0.10180
C121        C  0.09771696  0.01520634  0.96725285    -0.08620
C122        C  0.15401570  0.00962964  0.98214960    -0.10180
C123        C  0.40193771  0.53282247  0.09985953    -0.11780
C124        C  0.41391857  0.46868184  0.08465391    -0.26930
H125        H  0.42193787  0.59418693  0.09448819     0.17240
H126        H  0.38830825  0.90780999  0.08876217     0.17820
C127        C  0.08875695  0.46693480  0.08475283    -0.11780
C128        C  0.09197072  0.52719188  0.10171955    -0.26950
H129        H  0.11894931  0.90883732  0.08783450     0.17240
H130        H  0.06434012  0.58655065  0.09785724     0.17820
C131        C  0.34626485  0.99242462  0.02542587    -0.08620
C132        C  0.40279211  0.98661605  0.04024328    -0.10180
C133        C  0.15448314  0.99177494  0.02545478    -0.08620
C134        C  0.09833936  0.98574242  0.04027984    -0.10180
C135        C  0.04374019  0.47839845  0.06135817     0.05220
C136        C  0.45847145  0.97892175  0.06131258     0.05220
C137        C  0.20711313  0.50086398  0.00372503     0.05220
C138        C  0.29360861  0.50128620  0.00370304     0.05220
O139        O  0.16620809  0.95039727  0.13096067    -0.68290
O140        O  0.33743730  0.93718387  0.18342745    -0.69270
O141        O  0.16963769  0.93464621  0.18380764    -0.57890
O142        O  0.33623772  0.95246781  0.13062657    -0.66300
O143        O  0.33343553  0.58936374  0.13412640    -0.65850
O144        O  0.16983793  0.56982973  0.18809147    -0.57110
O145        O  0.33735796  0.57439411  0.18682658    -0.69610
O146        O  0.16264165  0.58541458  0.13553777    -0.68390
Cu147      Cu  0.25240032  0.93887580  0.15698355     1.04560
Cu148      Cu  0.25075155  0.58451494  0.16118035     1.04330
C149        C  0.14262313  0.02125463  0.12371392     0.97910
C150        C  0.35719716  0.00326118  0.19489740     0.97050
C151        C  0.15054617  0.00001014  0.19553594     0.89190
C152        C  0.35777156  0.02378455  0.12304337     0.95460
C153        C  0.45693756  0.52237957  0.94603097     0.05220
C154        C  0.04230273  0.52195140  0.94606989     0.05220
O155        O  0.16418564  0.54807734  0.87663663    -0.68290
O156        O  0.33092239  0.56467592  0.82344102    -0.69270
O157        O  0.16311649  0.56302163  0.82383253    -0.57890
O158        O  0.33421791  0.54949427  0.87630879    -0.66300
O159        O  0.33521117  0.91316969  0.87238597    -0.65850
O160        O  0.16304748  0.92613489  0.82032668    -0.57110
O161        O  0.33066474  0.92786476  0.81972678    -0.69610
O162        O  0.16427751  0.91166307  0.87302351    -0.68390
Cu163      Cu  0.24812107  0.56110824  0.85027112     1.04560
Cu164      Cu  0.24831312  0.91492495  0.84633821     1.04330
C165        C  0.14218008  0.47688970  0.88421327     0.97910
C166        C  0.34984906  0.49911463  0.81178254     0.97050
C167        C  0.14312208  0.49700503  0.81237225     0.89190
C168        C  0.35741195  0.47862944  0.88365371     0.95460
O169        O  0.09131705  0.67204720  0.63372500    -0.68290
O170        O  0.07584043  0.84015435  0.68701021    -0.69270
O171        O  0.07824568  0.67280782  0.68653002    -0.57890
O172        O  0.08927606  0.84268387  0.63439486    -0.66300
O173        O  0.45243379  0.83900528  0.63090909    -0.65850
O174        O  0.44098674  0.67050750  0.68351834    -0.57110
O175        O  0.43875333  0.83800798  0.68369998    -0.69610
O176        O  0.45430474  0.66929985  0.63062325    -0.68390
Cu177      Cu  0.08847155  0.75697322  0.66042685     1.04560
Cu178      Cu  0.44181522  0.75407516  0.65698651     1.04330
C179        C  0.02544009  0.64842083  0.62273290     0.97910
C180        C  0.00450821  0.85881668  0.69506852     0.97050
C181        C  0.00748023  0.65230012  0.69475174     0.89190
C182        C  0.02303340  0.86341538  0.62336737     0.95460
C183        C  0.97825644  0.54438834  0.56121811     0.05220
C184        C  0.97760073  0.95925001  0.56117248     0.05220
C185        C  0.99952389  0.70724476  0.50369981     0.05220
C186        C  0.99899478  0.79356958  0.50368368     0.05220
C187        C  0.99631962  0.00748608  0.75348482     0.02170
C188        C  0.02166896  0.54162949  0.44620229     0.05220
C189        C  0.02087659  0.95640210  0.44619371     0.05220
O190        O  0.06332444  0.66352757  0.32350494    -0.68290
O191        O  0.04544630  0.83034522  0.37705604    -0.69270
O192        O  0.04890535  0.66069069  0.37629567    -0.57890
O193        O  0.05930454  0.83101239  0.32417878    -0.66300
O194        O  0.42030413  0.82743079  0.32123413    -0.65850
O195        O  0.41156637  0.65482848  0.37257085    -0.57110
O196        O  0.40721775  0.82533854  0.37407828    -0.69610
O197        O  0.42528779  0.66014477  0.32001877    -0.68390
Cu198      Cu  0.05904933  0.74657609  0.35046386     1.04560
Cu199      Cu  0.41128992  0.74183671  0.34696047     1.04330
C200        C  0.99776974  0.64263236  0.31194373     0.97910
C201        C  0.97405060  0.84999515  0.38500663     0.97050
C202        C  0.97832907  0.63515134  0.38355930     0.89190
C203        C  0.99266341  0.84914393  0.31295781     0.95460
C204        C  0.00445605  0.99290444  0.25390956     0.02170
C205        C  0.00121296  0.92359140  0.27056480    -0.08620
C206        C  0.99750230  0.88749754  0.28965263    -0.10180
C207        C  0.00453258  0.60327277  0.28871313    -0.08620
C208        C  0.00676371  0.56438710  0.26996599    -0.10180
C209        C  0.96617205  0.89634545  0.40803572    -0.11780
C210        C  0.03118158  0.91130437  0.42278595    -0.26950
H211        H  0.90471442  0.91459551  0.41380587     0.17240
H212        H  0.59161843  0.89031551  0.41787747     0.17820
C213        C  0.97162156  0.58653430  0.40594480    -0.11780
C214        C  0.03218570  0.58589162  0.42280236    -0.26950
H215        H  0.41264620  0.55697565  0.41002257     0.17240
H216        H  0.08819055  0.62214401  0.42022948     0.17820
C217        C  0.00764534  0.84556456  0.48203899    -0.08620
C218        C  0.01329014  0.90156263  0.46725176    -0.10180
C219        C  0.01476946  0.59746656  0.46730002    -0.08620
C220        C  0.00881393  0.65416642  0.48207913    -0.10180
C221        C  0.98425573  0.90341746  0.54007379    -0.08620
C222        C  0.98994025  0.84666801  0.52530456    -0.10180
C223        C  0.98525648  0.59928825  0.54015094    -0.08620
C224        C  0.99079506  0.65526123  0.52534878    -0.10180
C225        C  0.96749324  0.91502948  0.58457697    -0.11780
C226        C  0.02973616  0.91131348  0.60083098    -0.26950
H227        H  0.40991682  0.88194520  0.58777151     0.17240
H228        H  0.08946106  0.93805219  0.59636534     0.17820
C229        C  0.96832386  0.58943648  0.58465693    -0.11780
C230        C  0.03277852  0.60114506  0.59986286    -0.26950
H231        H  0.40789283  0.61430610  0.58900574     0.17240
H232        H  0.09376080  0.58029930  0.59446700     0.17820
C233        C  0.99833750  0.89830353  0.71829378    -0.08620
C234        C  0.99563875  0.93655789  0.73714836    -0.10180
C235        C  0.99902435  0.57760981  0.73709835    -0.08620
C236        C  0.00248816  0.61420579  0.71809281    -0.10180
C237        C  0.42503030  0.50841781  0.76949829    -0.08620
C238        C  0.38765012  0.50567201  0.78840912    -0.10180
C239        C  0.10363382  0.50275455  0.78914683    -0.08620
C240        C  0.06629092  0.50609302  0.77015392    -0.10180
C241        C  0.41196339  0.53311057  0.92261497    -0.11780
C242        C  0.40571999  0.47109933  0.90628124    -0.26950
H243        H  0.38094299  0.59133121  0.91945487     0.17240
H244        H  0.43153858  0.91165081  0.91059064     0.17820
C245        C  0.08686386  0.53243548  0.92269759    -0.11780
C246        C  0.09554066  0.46896664  0.90703465    -0.26950
H247        H  0.11425097  0.59230571  0.91884067     0.17240
H248        H  0.07290498  0.90851718  0.91206908     0.17820
C249        C  0.39654010  0.99767673  0.21814699    -0.08620
C250        C  0.43361997  0.99444047  0.23718661    -0.10180
C251        C  0.11285583  0.99310418  0.21891529    -0.08620
C252        C  0.07558897  0.99069369  0.23785008    -0.10180
C253        C  0.34580484  0.50999962  0.98201872    -0.08620
C254        C  0.40180008  0.51557001  0.96713523    -0.10180
C255        C  0.09781860  0.51491115  0.96719959    -0.08620
C256        C  0.15420878  0.50940744  0.98207370    -0.10180
C257        C  0.40410858  0.03197185  0.10017578    -0.11780
C258        C  0.41407973  0.96821466  0.08469320    -0.26930
H259        H  0.42569973  0.09301778  0.09502872     0.17240
H260        H  0.39046579  0.40761425  0.08903703     0.17820
C261        C  0.08794403  0.96710729  0.08474155    -0.11780
C262        C  0.09419852  0.02893171  0.10112553    -0.26950
H263        H  0.12318377  0.41028172  0.08727033     0.17240
H264        H  0.06908671  0.08902661  0.09675458     0.17820
C265        C  0.34655259  0.49286912  0.02534928    -0.08620
C266        C  0.40299324  0.48726622  0.04020265    -0.10180
C267        C  0.15489710  0.49178367  0.02539648    -0.08620
C268        C  0.09890154  0.48574980  0.04026816    -0.10180
C269        C  0.54380067  0.97790419  0.06129205     0.05220
C270        C  0.95840422  0.47959425  0.06132574     0.05220
C271        C  0.70683708  0.00042889  0.00360151     0.05220
C272        C  0.79331398  0.00074621  0.00359447     0.05220
O273        O  0.66580178  0.44884878  0.13128657    -0.68290
O274        O  0.83867617  0.43742717  0.18338759    -0.69270
O275        O  0.67084895  0.43296521  0.18417556    -0.57890
O276        O  0.83582214  0.45264001  0.13057032    -0.66300
O277        O  0.83521876  0.08796167  0.13451310    -0.65850
O278        O  0.66919025  0.07021949  0.18789111    -0.57110
O279        O  0.83678825  0.07312516  0.18717948    -0.69610
O280        O  0.66428926  0.08554039  0.13526863    -0.68390
Cu281      Cu  0.75285470  0.43816090  0.15713516     1.04560
Cu282      Cu  0.75132424  0.08396921  0.16124439     1.04330
C283        C  0.64105045  0.51951259  0.12420909     0.97910
C284        C  0.85825035  0.50374982  0.19476569     0.97050
C285        C  0.65150785  0.49806839  0.19599767     0.89190
C286        C  0.85616950  0.52416418  0.12287942     0.95460
C287        C  0.95698781  0.02274722  0.94603770     0.05220
C288        C  0.54176769  0.02219347  0.94605288     0.05220
O289        O  0.66425901  0.04822045  0.87669631    -0.68290
O290        O  0.83092719  0.06481464  0.82345888    -0.69270
O291        O  0.66312001  0.06306142  0.82389019    -0.57890
O292        O  0.83431156  0.04972954  0.87632840    -0.66300
O293        O  0.83516341  0.41294242  0.87238542    -0.65850
O294        O  0.66311769  0.42605399  0.82028878    -0.57110
O295        O  0.83073419  0.42781951  0.81971817    -0.69610
O296        O  0.66423288  0.41139897  0.87297481    -0.68390
Cu297      Cu  0.74816398  0.06124853  0.85030955     1.04560
Cu298      Cu  0.74833162  0.41477162  0.84631252     1.04330
C299        C  0.64233966  0.97703059  0.88429441     0.97910
C300        C  0.84987603  0.99924823  0.81180427     0.97050
C301        C  0.64315171  0.99700638  0.81244717     0.89190
C302        C  0.85757239  0.97889169  0.88367591     0.95460
O303        O  0.59144738  0.17196413  0.63375993    -0.68290
O304        O  0.57581459  0.34008614  0.68702773    -0.69270
O305        O  0.57842163  0.17274834  0.68656495    -0.57890
O306        O  0.58919226  0.34259440  0.63441923    -0.66300
O307        O  0.95224839  0.33892088  0.63087148    -0.65850
O308        O  0.94103919  0.17043908  0.68350480    -0.57110
O309        O  0.93854292  0.33794303  0.68366778    -0.69610
O310        O  0.95437720  0.16921551  0.63060512    -0.68390
Cu311      Cu  0.58852021  0.25690165  0.66045444     1.04560
Cu312      Cu  0.94174801  0.25398856  0.65696111     1.04330
C313        C  0.52558587  0.14827149  0.62277275     0.97910
C314        C  0.50447093  0.35868396  0.69508874     0.97050
C315        C  0.50768508  0.15216948  0.69479269     0.89190
C316        C  0.52291724  0.36326323  0.62339833     0.95460
C317        C  0.47843129  0.04430129  0.56125198     0.05220
C318        C  0.47742563  0.45912123  0.56121277     0.05220
C319        C  0.49962199  0.20714595  0.50373853     0.05220
C320        C  0.49905626  0.29346701  0.50372497     0.05220
C321        C  0.49630224  0.50743702  0.75348128     0.02170
C322        C  0.52153053  0.04149054  0.44624258     0.05220
C323        C  0.52057404  0.45629513  0.44622837     0.05220
O324        O  0.56150722  0.16350502  0.32349267    -0.68290
O325        O  0.54415920  0.33028642  0.37705635    -0.69270
O326        O  0.54790385  0.16064135  0.37630073    -0.57890
O327        O  0.55706066  0.33098380  0.32415596    -0.66300
O328        O  0.92030300  0.32756449  0.32122533    -0.65850
O329        O  0.91190650  0.15501395  0.37255916    -0.57110
O330        O  0.90755375  0.32551134  0.37405428    -0.69610
O331        O  0.92526836  0.16031854  0.32001900    -0.68390
Cu332      Cu  0.55746525  0.24654736  0.35044905     1.04560
Cu333      Cu  0.91147010  0.24200065  0.34695306     1.04330
C334        C  0.49585364  0.14251910  0.31199711     0.97910
C335        C  0.47286467  0.34978468  0.38511526     0.97050
C336        C  0.47747279  0.13494082  0.38363821     0.89190
C337        C  0.49020070  0.34902945  0.31303178     0.95460
C338        C  0.50418004  0.49262768  0.25396859     0.02170
C339        C  0.49889006  0.42341586  0.27062470    -0.08620
C340        C  0.49463585  0.38738418  0.28971572    -0.10180
C341        C  0.50246793  0.10319192  0.28875506    -0.08620
C342        C  0.50497942  0.06433921  0.27000417    -0.10180
C343        C  0.46530850  0.39613073  0.40815678    -0.11780
C344        C  0.53055409  0.41120170  0.42280723    -0.26950
H345        H  0.40392788  0.41431455  0.41401736     0.17240
H346        H  0.09194061  0.39033396  0.41787537     0.17820
C347        C  0.47111110  0.08628690  0.40602340    -0.11780
C348        C  0.53182498  0.08574441  0.42283251    -0.26950
H349        H  0.91302800  0.05716669  0.40998471     0.17240
H350        H  0.58773572  0.12210798  0.42022038     0.17820
C351        C  0.50765740  0.34546232  0.48208098    -0.08620
C352        C  0.51319879  0.40145783  0.46729128    -0.10180
C353        C  0.51478211  0.09734383  0.46734195    -0.08620
C354        C  0.50888888  0.15406199  0.48211784    -0.10180
C355        C  0.48418374  0.40329566  0.54011559    -0.08620
C356        C  0.48994760  0.34655562  0.52534615    -0.10180
C357        C  0.48540126  0.09919211  0.54018562    -0.08620
C358        C  0.49091890  0.15516695  0.52538590    -0.10180
C359        C  0.46731411  0.41489350  0.58461587    -0.11780
C360        C  0.52955989  0.41120241  0.60086893    -0.26950
H361        H  0.90972420  0.38195367  0.58772221     0.17240
H362        H  0.58926338  0.43799234  0.59640491     0.17820
C363        C  0.46850433  0.08935155  0.58468923    -0.11780
C364        C  0.53294976  0.10102461  0.59990022    -0.26950
H365        H  0.90809318  0.11448521  0.58895410     0.17240
H366        H  0.59393439  0.08017883  0.59450687     0.17820
C367        C  0.49829547  0.39821132  0.71830476    -0.08620
C368        C  0.49563154  0.43650098  0.73715172    -0.10180
C369        C  0.49926598  0.07750566  0.73714285    -0.08620
C370        C  0.50274665  0.11409485  0.71813693    -0.10180
C371        C  0.92504220  0.00850017  0.76950765    -0.08620
C372        C  0.88766852  0.00578729  0.78842354    -0.10180
C373        C  0.60368648  0.00268525  0.78921995    -0.08620
C374        C  0.56640436  0.00599573  0.77021782    -0.10180
C375        C  0.91214436  0.03350038  0.92260842    -0.11780
C376        C  0.90585315  0.97141997  0.90630353    -0.26950
H377        H  0.88125951  0.09177298  0.91941673     0.17240
H378        H  0.93078606  0.41108371  0.91071978     0.17820
C379        C  0.58615454  0.03279448  0.92265467    -0.11780
C380        C  0.59572947  0.96909190  0.90712652    -0.26950
H381        H  0.61255875  0.09298587  0.91865567     0.17240
H382        H  0.57288345  0.40814026  0.91202602     0.17820
C383        C  0.89814467  0.49864422  0.21795370    -0.08620
C384        C  0.93514531  0.49531081  0.23701160    -0.10180
C385        C  0.61391752  0.49077002  0.21938484    -0.08620
C386        C  0.57604253  0.48892807  0.23821957    -0.10180
C387        C  0.84562401  0.00984445  0.98194765    -0.08620
C388        C  0.90172353  0.01568586  0.96710653    -0.10180
C389        C  0.59744377  0.01495468  0.96713445    -0.08620
C390        C  0.65392644  0.00927081  0.98196822    -0.10180
C391        C  0.90191114  0.53276661  0.09990499    -0.11780
C392        C  0.91384088  0.46868032  0.08467223    -0.26930
H393        H  0.92196654  0.59413408  0.09455505     0.17240
H394        H  0.88571373  0.90790075  0.08840993     0.17820
C395        C  0.58882501  0.46685430  0.08475856    -0.11780
C396        C  0.59193865  0.52705498  0.10174671    -0.26950
H397        H  0.62136380  0.90890512  0.08749400     0.17240
H398        H  0.56427469  0.58640278  0.09789239     0.17820
C399        C  0.84608522  0.99193490  0.02525574    -0.08620
C400        C  0.90233590  0.98621161  0.04016103    -0.10180
C401        C  0.65466116  0.99122375  0.02526828    -0.08620
C402        C  0.59877885  0.98521519  0.04017010    -0.10180
C403        C  0.54382069  0.47833508  0.06135645     0.05220
C404        C  0.95773000  0.97878302  0.06129776     0.05220
C405        C  0.70712116  0.50084756  0.00371383     0.05220
C406        C  0.79361099  0.50129189  0.00369483     0.05220
O407        O  0.66605608  0.94902043  0.13113894    -0.68290
O408        O  0.83738425  0.93617410  0.18364072    -0.69270
O409        O  0.66950263  0.93336747  0.18404459    -0.57890
O410        O  0.83613305  0.95132135  0.13080007    -0.66300
O411        O  0.83333021  0.58927497  0.13416747    -0.65850
O412        O  0.66972382  0.56977083  0.18814765    -0.57110
O413        O  0.83725614  0.57438050  0.18686887    -0.69610
O414        O  0.66252546  0.58528164  0.13558090    -0.68390
Cu415      Cu  0.75228696  0.93765742  0.15718779     1.04560
Cu416      Cu  0.75063671  0.58443674  0.16122581     1.04330
C417        C  0.64237060  0.01987466  0.12391261     0.97910
C418        C  0.85713617  0.00231598  0.19508365     0.97050
C419        C  0.65030579  0.99872146  0.19576905     0.89190
C420        C  0.85764839  0.02268118  0.12324080     0.95460
C421        C  0.95696492  0.52242990  0.94603221     0.05220
C422        C  0.54227646  0.52191222  0.94606573     0.05220
O423        O  0.66420611  0.54806787  0.87663973    -0.68290
O424        O  0.83093468  0.56471946  0.82343936    -0.69270
O425        O  0.66312831  0.56301020  0.82383830    -0.57890
O426        O  0.83424165  0.54953506  0.87630991    -0.66300
O427        O  0.83531327  0.91313091  0.87241901    -0.65850
O428        O  0.66313436  0.92609669  0.82036955    -0.57110
O429        O  0.83075244  0.92791181  0.81975550    -0.69610
O430        O  0.66440874  0.91154640  0.87306585    -0.68390
Cu431      Cu  0.74813841  0.56112450  0.85027326     1.04560
Cu432      Cu  0.74842003  0.91489023  0.84637396     1.04330
C433        C  0.64221304  0.47687460  0.88421511     0.97910
C434        C  0.84987472  0.49916560  0.81177865     0.97050
C435        C  0.64314666  0.49698530  0.81238075     0.89190
C436        C  0.85744979  0.47867486  0.88365481     0.95460
O437        O  0.59132821  0.67193048  0.63374966    -0.68290
O438        O  0.57599784  0.84004349  0.68702897    -0.69270
O439        O  0.57829131  0.67270100  0.68655103    -0.57890
O440        O  0.58937678  0.84256324  0.63441652    -0.66300
O441        O  0.95234081  0.83904804  0.63086995    -0.65850
O442        O  0.94094411  0.67055695  0.68349365    -0.57110
O443        O  0.93860206  0.83806197  0.68366441    -0.69610
O444        O  0.95429658  0.66933768  0.63059491    -0.68390
Cu445      Cu  0.58855063  0.75685668  0.66044801     1.04560
Cu446      Cu  0.94174247  0.75411765  0.65695421     1.04330
C447        C  0.52543477  0.64834070  0.62276038     0.97910
C448        C  0.50468558  0.85873368  0.69509545     0.97050
C449        C  0.50751843  0.65222202  0.69477322     0.89190
C450        C  0.52312882  0.86333129  0.62339840     0.95460
C451        C  0.47823034  0.54429743  0.56125306     0.05220
C452        C  0.47763154  0.95912783  0.56120969     0.05220
C453        C  0.49961917  0.70713521  0.50373858     0.05220
C454        C  0.49900065  0.79345778  0.50371956     0.05220
C455        C  0.49647973  0.00740226  0.75350733     0.02170
C456        C  0.52192189  0.54147597  0.44625800     0.05220
C457        C  0.52014363  0.95630891  0.44621365     0.05220
O458        O  0.56245170  0.66356458  0.32354946    -0.68290
O459        O  0.54420986  0.83033685  0.37707908    -0.69270
O460        O  0.54838193  0.66071618  0.37634525    -0.57890
O461        O  0.55760596  0.83102282  0.32419769    -0.66300
O462        O  0.92201551  0.82794224  0.32111482    -0.65850
O463        O  0.91208999  0.65540340  0.37245715    -0.57110
O464        O  0.90846404  0.82593122  0.37393700    -0.69610
O465        O  0.92616499  0.66065029  0.31992281    -0.68390
Cu466      Cu  0.55796147  0.74661226  0.35049482     1.04560
Cu467      Cu  0.91238445  0.74241004  0.34683934     1.04330
C468        C  0.49693782  0.64242184  0.31200968     0.97910
C469        C  0.47281568  0.84969776  0.38508980     0.97050
C470        C  0.47795376  0.63488454  0.38364454     0.89190
C471        C  0.49079712  0.84890889  0.31302526     0.95460
C472        C  0.50335572  0.99264602  0.25396454     0.02170
C473        C  0.49923989  0.92337379  0.27062599    -0.08620
C474        C  0.49532027  0.88729345  0.28971512    -0.10180
C475        C  0.50381114  0.60313699  0.28876785    -0.08620
C476        C  0.50625694  0.56431049  0.27001072    -0.10180
C477        C  0.46503689  0.89606917  0.40812112    -0.11780
C478        C  0.53020293  0.91121603  0.42279738    -0.26950
H479        H  0.40360421  0.91419598  0.41394925     0.17240
H480        H  0.09260417  0.89023985  0.41793671     0.17820
C481        C  0.47154612  0.58629134  0.40603930    -0.11780
C482        C  0.53225385  0.58572515  0.42285013    -0.26950
H483        H  0.91265497  0.55727112  0.40987702     0.17240
H484        H  0.58820403  0.62202515  0.42023580     0.17820
C485        C  0.50747671  0.84545640  0.48207063    -0.08620
C486        C  0.51289408  0.90146463  0.46728007    -0.10180
C487        C  0.51501951  0.59732935  0.46735245    -0.08620
C488        C  0.50899533  0.65404706  0.48212331    -0.10180
C489        C  0.48428496  0.90330246  0.54011019    -0.08620
C490        C  0.48996541  0.84655323  0.52534125    -0.10180
C491        C  0.48529186  0.59918748  0.54018713    -0.08620
C492        C  0.49087210  0.65515883  0.52538688    -0.10180
C493        C  0.46755760  0.91490426  0.58461260    -0.11780
C494        C  0.52981517  0.91121797  0.60086177    -0.26950
H495        H  0.90984020  0.88208777  0.58773180     0.17240
H496        H  0.58953032  0.93797061  0.59639189     0.17820
C497        C  0.46829057  0.58935553  0.58468901    -0.11780
C498        C  0.53274872  0.60105540  0.59989298    -0.26950
H499        H  0.90792165  0.61437368  0.58897499     0.17240
H500        H  0.59372469  0.58019247  0.59449661     0.17820
C501        C  0.49856668  0.89821802  0.71832048    -0.08620
C502        C  0.49587464  0.93647367  0.73717375    -0.10180
C503        C  0.49903315  0.57753352  0.73711558    -0.08620
C504        C  0.50251237  0.61412999  0.71811188    -0.10180
C505        C  0.92502904  0.50848837  0.76948722    -0.08620
C506        C  0.88766233  0.50573630  0.78840158    -0.10180
C507        C  0.60364289  0.50271714  0.78915946    -0.08620
C508        C  0.56629076  0.50603626  0.77016914    -0.10180
C509        C  0.91200162  0.53316859  0.92261493    -0.11780
C510        C  0.90574091  0.47114857  0.90628506    -0.26950
H511        H  0.88101293  0.59140281  0.91944969     0.17240
H512        H  0.93082901  0.91134676  0.91076427     0.17820
C513        C  0.58682942  0.53241078  0.92269244    -0.11780
C514        C  0.59555015  0.46893972  0.90703256    -0.26950
H515        H  0.61418872  0.59229273  0.91883449     0.17240
H516        H  0.57372758  0.90815703  0.91223331     0.17820
C517        C  0.89684153  0.99692211  0.21828508    -0.08620
C518        C  0.93435207  0.99410322  0.23725820    -0.10180
C519        C  0.61239668  0.99185949  0.21913173    -0.08620
C520        C  0.57480669  0.98980735  0.23802139    -0.10180
C521        C  0.84581926  0.51002075  0.98201435    -0.08620
C522        C  0.90182019  0.51560546  0.96713370    -0.10180
C523        C  0.59780447  0.51488181  0.96719336    -0.08620
C524        C  0.65420616  0.50938661  0.98206431    -0.10180
C525        C  0.90429756  0.03103244  0.10042177    -0.11780
C526        C  0.91307494  0.96785682  0.08465154    -0.26930
H527        H  0.92693478  0.09193447  0.09552606     0.17240
H528        H  0.89029564  0.40762669  0.08903021     0.17820
C529        C  0.58893027  0.96655254  0.08466690    -0.11780
C530        C  0.59389472  0.02764959  0.10133246    -0.26950
H531        H  0.62331424  0.41023475  0.08726703     0.17240
H532        H  0.56779828  0.08749567  0.09718996     0.17820
C533        C  0.84652232  0.49288416  0.02534727    -0.08620
C534        C  0.90292082  0.48729238  0.04021357    -0.10180
C535        C  0.65493298  0.49174435  0.02538752    -0.08620
C536        C  0.59897375  0.48569103  0.04026782    -0.10180
loop_ 
_geom_bond_atom_site_label_1 
_geom_bond_atom_site_label_2 
_geom_bond_distance 
_geom_bond_site_symmetry_2 
_ccdc_geom_bond_type 
C1          C134   1.466       .  S
C1          C404   1.380   1_455  D
C1          C261   1.481       .  S
C2          C266   1.465       .  S
C2          C403   1.381       .  D
C2          C124   1.479       .  S
C3          C122   1.465   1_554  S
C3          C133   1.465   1_545  S
C3            C4   1.399       .  D
C4          C119   1.465   1_554  S
C4          C131   1.465   1_545  S
O5          Cu13   1.999       .  S
O5           C15   1.278       .  A
O6          Cu13   1.992       .  S
O6           C16   1.275       .  A
O7          Cu13   1.991       .  S
O7           C17   1.275       .  A
O8          Cu13   1.995       .  S
O8           C18   1.277       .  A
O9          Cu14   1.999       .  S
O9          C152   1.276       .  A
O10         Cu14   1.988       .  S
O10         C151   1.275       .  A
O11         Cu14   1.986       .  S
O11         C150   1.274       .  A
O12         Cu14   1.996       .  S
O12         C149   1.275       .  A
Cu13       Cu148   2.380       .  S
Cu14       Cu147   2.380   1_545  S
C15         O146   1.275       .  A
C15         C128   1.465       .  S
C16         O145   1.274       .  A
C16         C115   1.423       .  S
C17         O144   1.275       .  A
C17         C117   1.423       .  S
C18         O143   1.276       .  A
C18         C123   1.467       .  S
C19         C120   1.465       .  S
C19         C288   1.380       .  D
C19         C107   1.481       .  S
C20         C121   1.465       .  S
C20         C287   1.380   1_455  D
C20         C111   1.480       .  S
O21         Cu29   1.996       .  S
O21          C31   1.277   1_545  A
O22         Cu29   1.991       .  S
O22          C32   1.275   1_545  A
O23         Cu29   1.991       .  S
O23          C33   1.275   1_545  A
O24         Cu29   1.997       .  S
O24          C34   1.278   1_545  A
O25         Cu30   1.997       .  S
O25         C168   1.276       .  A
O26         Cu30   1.987       .  S
O26         C167   1.274       .  A
O27         Cu30   1.988       .  S
O27         C166   1.274       .  A
O28         Cu30   1.998       .  S
O28         C165   1.276       .  A
Cu29       Cu164   2.380   1_545  S
Cu30       Cu163   2.380       .  S
C31         O162   1.276       .  A
C31         C112   1.466       .  S
C32         O161   1.274       .  A
C32         C104   1.423   1_565  S
C33         O160   1.274       .  A
C33         C105   1.422   1_565  S
C34         O159   1.276       .  A
C34         C108   1.466       .  S
O35         Cu43   2.000       .  S
O35          C45   1.276       .  A
O36         Cu43   1.987       .  S
O36          C46   1.274       .  A
O37         Cu43   1.988       .  S
O37          C47   1.274       .  A
O38         Cu43   1.996       .  S
O38          C48   1.275       .  A
O39         Cu44   1.996       .  S
O39         C316   1.277       .  A
O40         Cu44   1.991       .  S
O40         C315   1.275       .  A
O41         Cu44   1.989       .  S
O41         C314   1.274       .  A
O42         Cu44   1.995       .  S
O42         C313   1.277       .  A
Cu43       Cu312   2.380   1_455  S
Cu44       Cu311   2.380       .  S
C45         O310   1.277   1_455  A
C45          C96   1.467       .  S
C46         O309   1.275   1_455  A
C46          C99   1.421   1_455  S
C47         O308   1.275   1_455  A
C47         C102   1.424       .  S
C48         O307   1.277   1_455  A
C48          C92   1.465       .  S
C49          C89   1.464       .  S
C49         C184   1.380   1_545  D
C49          C95   1.480       .  S
C50          C87   1.465       .  S
C50         C183   1.380       .  D
C50          C91   1.480       .  S
C51          C86   1.465   1_655  S
C51          C90   1.464       .  S
C51          C52   1.399       .  D
C52          C83   1.464   1_655  S
C52          C88   1.465       .  S
C53         C100   1.450       .  S
C53         C235   1.452       .  S
C53         C505   1.451       .  S
C53         C240   1.451   1_655  S
C54          C85   1.466       .  S
C54         C189   1.381   1_545  D
C54          C80   1.481       .  S
C55          C84   1.464       .  S
C55         C188   1.380       .  D
C55          C76   1.479       .  S
O56         Cu64   1.990       .  S
O56          C66   1.275   1_455  A
O57         Cu64   1.995       .  S
O57          C67   1.277   1_455  A
O58         Cu64   1.997       .  S
O58          C68   1.277   1_455  A
O59         Cu64   1.991       .  S
O59          C69   1.275   1_455  A
O60         Cu65   1.987       .  S
O60         C337   1.274       .  A
O61         Cu65   1.994       .  S
O61         C336   1.275       .  A
O62         Cu65   2.001       .  S
O62         C335   1.276       .  A
O63         Cu65   1.988       .  S
O63         C334   1.275       .  A
Cu64       Cu333   2.380   1_455  S
Cu65       Cu332   2.380       .  S
C66         O331   1.274       .  A
C66          C73   1.422   1_655  S
C67         O330   1.276       .  A
C67          C75   1.467       .  S
C68         O329   1.275       .  A
C68          C79   1.464       .  S
C69         O328   1.274       .  A
C69          C72   1.423       .  S
C70          C71   1.452   1_455  S
C70         C118   1.450       .  S
C70         C208   1.450       .  S
C70         C384   1.452   1_455  S
C71          C72   1.201       .  T
C73          C74   1.200       .  T
C74         C204   1.450   1_545  S
C75          C76   1.342   1_655  D
C75          H77   1.087       .  S
C76         H346   1.086       .  S
H78         C344   1.086       .  S
C79          C80   1.342   1_655  D
C79         H349   1.085       .  S
C80          H82   1.086       .  S
H81         C347   1.085       .  S
C83          C84   1.223       .  T
C85          C86   1.224       .  T
C87          C88   1.224       .  T
C89          C90   1.223       .  T
C91          C92   1.342   1_655  D
C91         H361   1.086       .  S
C92          H94   1.086       .  S
H93         C359   1.086       .  S
C95          C96   1.342   1_655  D
C95         H365   1.086       .  S
C96          H98   1.086       .  S
H97         C363   1.086       .  S
C99         C100   1.200       .  T
C101        C187   1.452       .  S
C101        C102   1.201   1_655  T
C103        C455   1.451       .  S
C103        C104   1.201       .  T
C105        C106   1.200       .  T
C106        C187   1.451   1_455  S
C107        C108   1.342   1_545  D
C107        H109   1.086       .  S
C108        H244   1.086       .  S
H110        C242   1.086       .  S
C111        C112   1.342   1_545  D
C111        H113   1.086       .  S
C112        H248   1.086       .  S
H114        C246   1.086       .  S
C115        C116   1.201       .  T
C116        C338   1.452       .  S
C117        C118   1.200       .  T
C119        C120   1.223       .  T
C121        C122   1.223       .  T
C123        C124   1.342       .  D
C123        H125   1.086       .  S
C124        H260   1.086       .  S
H126        C258   1.086       .  S
C127        C128   1.342       .  D
C127        C135   1.482       .  S
C127        H263   1.086       .  S
C128        H130   1.085       .  S
H129        C261   1.086       .  S
C131        C132   1.223       .  T
C132        C136   1.465       .  S
C133        C134   1.224       .  T
C135        C268   1.466       .  S
C135        C270   1.381   1_455  D
C136        C269   1.380       .  D
C136        C258   1.479       .  S
C137        C256   1.465   1_554  S
C137        C267   1.465       .  S
C137        C138   1.399       .  D
C138        C253   1.465   1_554  S
C138        C265   1.465       .  S
O139       Cu147   1.998       .  S
O139        C149   1.278   1_565  A
O140       Cu147   1.991       .  S
O140        C150   1.275   1_565  A
O141       Cu147   1.991       .  S
O141        C151   1.275   1_565  A
O142       Cu147   1.995       .  S
O142        C152   1.277   1_565  A
O143       Cu148   2.000       .  S
O144       Cu148   1.987       .  S
O145       Cu148   1.986       .  S
O146       Cu148   1.995       .  S
C149        C262   1.466       .  S
C150        C249   1.422   1_545  S
C151        C251   1.423   1_545  S
C152        C257   1.466       .  S
C153        C254   1.465       .  S
C153        C422   1.380       .  D
C153        C241   1.481       .  S
C154        C255   1.465       .  S
C154        C421   1.380   1_455  D
C154        C245   1.480       .  S
O155       Cu163   1.995       .  S
O155        C165   1.277       .  A
O156       Cu163   1.991       .  S
O156        C166   1.275       .  A
O157       Cu163   1.991       .  S
O157        C167   1.275       .  A
O158       Cu163   1.998       .  S
O158        C168   1.278       .  A
O159       Cu164   1.997       .  S
O160       Cu164   1.987       .  S
O161       Cu164   1.988       .  S
O162       Cu164   1.999       .  S
C165        C246   1.466       .  S
C166        C238   1.423       .  S
C167        C239   1.422       .  S
C168        C242   1.466       .  S
O169       Cu177   2.000       .  S
O169        C179   1.276       .  A
O170       Cu177   1.987       .  S
O170        C180   1.274       .  A
O171       Cu177   1.987       .  S
O171        C181   1.274       .  A
O172       Cu177   1.995       .  S
O172        C182   1.275       .  A
O173       Cu178   1.995       .  S
O173        C450   1.277       .  A
O174       Cu178   1.991       .  S
O174        C449   1.275       .  A
O175       Cu178   1.989       .  S
O175        C448   1.275       .  A
O176       Cu178   1.996       .  S
O176        C447   1.277       .  A
Cu177      Cu446   2.380   1_455  S
Cu178      Cu445   2.380       .  S
C179        O444   1.277   1_455  A
C179        C230   1.467       .  S
C180        O443   1.274   1_455  A
C180        C233   1.422   1_455  S
C181        O442   1.275   1_455  A
C181        C236   1.423       .  S
C182        O441   1.277   1_455  A
C182        C226   1.465       .  S
C183        C223   1.464       .  S
C183        C229   1.480       .  S
C184        C221   1.465       .  S
C184        C225   1.480       .  S
C185        C220   1.465   1_655  S
C185        C224   1.464       .  S
C185        C186   1.399       .  D
C186        C217   1.464   1_655  S
C186        C222   1.465       .  S
C187        C234   1.450   1_545  S
C187        C371   1.451       .  S
C188        C219   1.466       .  S
C188        C214   1.481       .  S
C189        C218   1.464       .  S
C189        C210   1.479       .  S
O190       Cu198   1.990       .  S
O190        C200   1.275   1_455  A
O191       Cu198   1.995       .  S
O191        C201   1.277   1_455  A
O192       Cu198   1.996       .  S
O192        C202   1.277   1_455  A
O193       Cu198   1.991       .  S
O193        C203   1.275   1_455  A
O194       Cu199   1.987       .  S
O194        C471   1.274       .  A
O195       Cu199   1.994       .  S
O195        C470   1.275       .  A
O196       Cu199   2.001       .  S
O196        C469   1.276       .  A
O197       Cu199   1.988       .  S
O197        C468   1.275       .  A
Cu198      Cu467   2.380   1_455  S
Cu199      Cu466   2.380       .  S
C200        O465   1.274       .  A
C200        C207   1.422   1_655  S
C201        O464   1.276       .  A
C201        C209   1.467       .  S
C202        O463   1.275       .  A
C202        C213   1.464       .  S
C203        O462   1.274       .  A
C203        C206   1.423       .  S
C204        C205   1.452       .  S
C204        C518   1.451   1_455  S
C204        C252   1.451       .  S
C205        C206   1.201   1_455  T
C207        C208   1.200       .  T
C209        C210   1.342   1_655  D
C209        H211   1.087       .  S
C210        H480   1.086       .  S
H212        C478   1.086       .  S
C213        C214   1.342   1_655  D
C213        H483   1.085       .  S
C214        H216   1.086       .  S
H215        C481   1.085       .  S
C217        C218   1.223       .  T
C219        C220   1.224       .  T
C221        C222   1.223       .  T
C223        C224   1.223       .  T
C225        C226   1.342   1_655  D
C225        H495   1.086       .  S
C226        H228   1.086       .  S
H227        C493   1.086       .  S
C229        C230   1.342   1_655  D
C229        H499   1.086       .  S
C230        H232   1.086       .  S
H231        C497   1.086       .  S
C233        C234   1.200       .  T
C235        C236   1.201   1_655  T
C237        C321   1.451       .  S
C237        C238   1.201       .  T
C239        C240   1.200       .  T
C241        C242   1.342       .  D
C241        H243   1.086       .  S
C245        C246   1.342       .  D
C245        H247   1.086       .  S
C249        C250   1.200       .  T
C250        C472   1.451       .  S
C251        C252   1.201       .  T
C253        C254   1.223       .  T
C255        C256   1.223       .  T
C257        C258   1.342   1_545  D
C257        H259   1.086       .  S
C261        C262   1.342   1_565  D
C262        H264   1.086       .  S
C265        C266   1.223       .  T
C267        C268   1.223       .  T
C269        C402   1.465       .  S
C269        C529   1.482       .  S
C270        C534   1.465       .  S
C270        C392   1.479       .  S
C271        C390   1.465   1_554  S
C271        C401   1.465   1_545  S
C271        C272   1.399       .  D
C272        C387   1.465   1_554  S
C272        C399   1.465   1_545  S
O273       Cu281   2.000       .  S
O273        C283   1.278       .  A
O274       Cu281   1.992       .  S
O274        C284   1.275       .  A
O275       Cu281   1.992       .  S
O275        C285   1.275       .  A
O276       Cu281   1.995       .  S
O276        C286   1.277       .  A
O277       Cu282   1.999       .  S
O277        C420   1.276       .  A
O278       Cu282   1.988       .  S
O278        C419   1.275   1_545  A
O279       Cu282   1.985       .  S
O279        C418   1.274       .  A
O280       Cu282   1.995       .  S
O280        C417   1.275       .  A
Cu281      Cu416   2.380       .  S
Cu282      Cu415   2.380   1_545  S
C283        O414   1.275       .  A
C283        C396   1.466       .  S
C284        O413   1.274       .  A
C284        C383   1.423       .  S
C285        O412   1.275       .  A
C285        C385   1.423       .  S
C286        O411   1.276       .  A
C286        C391   1.467       .  S
C287        C388   1.465       .  S
C287        C375   1.481       .  S
C288        C389   1.465       .  S
C288        C379   1.480       .  S
O289       Cu297   1.996       .  S
O289        C299   1.277   1_545  A
O290       Cu297   1.991       .  S
O290        C300   1.275   1_545  A
O291       Cu297   1.990       .  S
O291        C301   1.275   1_545  A
O292       Cu297   1.997       .  S
O292        C302   1.278   1_545  A
O293       Cu298   1.997       .  S
O293        C436   1.276       .  A
O294       Cu298   1.987       .  S
O294        C435   1.274       .  A
O295       Cu298   1.988       .  S
O295        C434   1.275       .  A
O296       Cu298   1.998       .  S
O296        C433   1.276       .  A
Cu297      Cu432   2.380   1_545  S
Cu298      Cu431   2.380       .  S
C299        O430   1.276       .  A
C299        C380   1.467       .  S
C300        O429   1.275       .  A
C300        C372   1.423   1_565  S
C301        O428   1.274       .  A
C301        C373   1.422   1_565  S
C302        O427   1.276       .  A
C302        C376   1.466       .  S
O303       Cu311   1.999       .  S
O303        C313   1.276       .  A
O304       Cu311   1.987       .  S
O304        C314   1.274       .  A
O305       Cu311   1.987       .  S
O305        C315   1.274       .  A
O306       Cu311   1.995       .  S
O306        C316   1.275       .  A
O307       Cu312   1.996       .  S
O308       Cu312   1.991       .  S
O309       Cu312   1.989       .  S
O310       Cu312   1.995       .  S
C313        C364   1.467       .  S
C314        C367   1.421       .  S
C315        C370   1.423       .  S
C316        C360   1.465       .  S
C317        C357   1.464       .  S
C317        C452   1.380   1_545  D
C317        C363   1.480       .  S
C318        C355   1.465       .  S
C318        C451   1.380       .  D
C318        C359   1.480       .  S
C319        C354   1.465       .  S
C319        C358   1.464       .  S
C319        C320   1.399       .  D
C320        C351   1.464       .  S
C320        C356   1.465       .  S
C321        C368   1.450       .  S
C321        C503   1.451       .  S
C321        C508   1.451       .  S
C322        C353   1.466       .  S
C322        C457   1.380   1_545  D
C322        C348   1.481       .  S
C323        C352   1.464       .  S
C323        C456   1.380       .  D
C323        C344   1.479       .  S
O324       Cu332   1.990       .  S
O324        C334   1.274       .  A
O325       Cu332   1.995       .  S
O325        C335   1.277       .  A
O326       Cu332   1.996       .  S
O326        C336   1.277       .  A
O327       Cu332   1.991       .  S
O327        C337   1.275       .  A
O328       Cu333   1.987       .  S
O329       Cu333   1.993       .  S
O330       Cu333   2.001       .  S
O331       Cu333   1.987       .  S
C334        C341   1.422       .  S
C335        C343   1.468       .  S
C336        C347   1.464       .  S
C337        C340   1.424       .  S
C338        C339   1.452       .  S
C338        C476   1.450       .  S
C338        C386   1.451       .  S
C339        C340   1.201       .  T
C341        C342   1.200       .  T
C342        C472   1.450   1_545  S
C343        C344   1.342       .  D
C343        H345   1.087       .  S
C347        C348   1.342       .  D
C348        H350   1.086       .  S
C351        C352   1.223       .  T
C353        C354   1.224       .  T
C355        C356   1.223       .  T
C357        C358   1.223       .  T
C359        C360   1.342       .  D
C360        H362   1.086       .  S
C363        C364   1.342       .  D
C364        H366   1.086       .  S
C367        C368   1.200       .  T
C369        C455   1.451       .  S
C369        C370   1.201       .  T
C371        C372   1.201       .  T
C373        C374   1.200       .  T
C374        C455   1.451       .  S
C375        C376   1.342   1_545  D
C375        H377   1.086       .  S
C376        H512   1.086       .  S
H378        C510   1.086       .  S
C379        C380   1.342   1_545  D
C379        H381   1.086       .  S
C380        H516   1.086       .  S
H382        C514   1.086       .  S
C383        C384   1.201       .  T
C385        C386   1.201       .  T
C387        C388   1.223       .  T
C389        C390   1.223       .  T
C391        C392   1.342       .  D
C391        H393   1.086       .  S
C392        H528   1.086       .  S
H394        C526   1.086       .  S
C395        C396   1.342       .  D
C395        C403   1.482       .  S
C395        H531   1.086       .  S
C396        H398   1.085       .  S
H397        C529   1.086       .  S
C399        C400   1.223       .  T
C400        C404   1.465       .  S
C401        C402   1.223       .  T
C403        C536   1.466       .  S
C404        C526   1.480       .  S
C405        C524   1.465   1_554  S
C405        C535   1.465       .  S
C405        C406   1.399       .  D
C406        C521   1.465   1_554  S
C406        C533   1.465       .  S
O407       Cu415   1.999       .  S
O407        C417   1.278   1_565  A
O408       Cu415   1.992       .  S
O408        C418   1.275   1_565  A
O409       Cu415   1.992       .  S
O409        C419   1.275       .  A
O410       Cu415   1.996       .  S
O410        C420   1.277   1_565  A
O411       Cu416   2.000       .  S
O412       Cu416   1.988       .  S
O413       Cu416   1.986       .  S
O414       Cu416   1.995       .  S
C417        C530   1.466       .  S
C418        C517   1.422   1_545  S
C419        C519   1.424       .  S
C420        C525   1.467       .  S
C421        C522   1.465       .  S
C421        C509   1.481       .  S
C422        C523   1.465       .  S
C422        C513   1.480       .  S
O423       Cu431   1.995       .  S
O423        C433   1.277       .  A
O424       Cu431   1.991       .  S
O424        C434   1.275       .  A
O425       Cu431   1.991       .  S
O425        C435   1.275       .  A
O426       Cu431   1.998       .  S
O426        C436   1.278       .  A
O427       Cu432   1.997       .  S
O428       Cu432   1.986       .  S
O429       Cu432   1.988       .  S
O430       Cu432   1.999       .  S
C433        C514   1.466       .  S
C434        C506   1.423       .  S
C435        C507   1.422       .  S
C436        C510   1.466       .  S
O437       Cu445   1.999       .  S
O437        C447   1.276       .  A
O438       Cu445   1.987       .  S
O438        C448   1.274       .  A
O439       Cu445   1.987       .  S
O439        C449   1.274       .  A
O440       Cu445   1.995       .  S
O440        C450   1.275       .  A
O441       Cu446   1.996       .  S
O442       Cu446   1.991       .  S
O443       Cu446   1.989       .  S
O444       Cu446   1.996       .  S
C447        C498   1.467       .  S
C448        C501   1.421       .  S
C449        C504   1.423       .  S
C450        C494   1.464       .  S
C451        C491   1.464       .  S
C451        C497   1.480       .  S
C452        C489   1.465       .  S
C452        C493   1.480       .  S
C453        C488   1.465       .  S
C453        C492   1.464       .  S
C453        C454   1.399       .  D
C454        C485   1.464       .  S
C454        C490   1.465       .  S
C455        C502   1.450   1_545  S
C456        C487   1.466       .  S
C456        C482   1.481       .  S
C457        C486   1.464       .  S
C457        C478   1.479       .  S
O458       Cu466   1.990       .  S
O458        C468   1.274       .  A
O459       Cu466   1.995       .  S
O459        C469   1.277       .  A
O460       Cu466   1.996       .  S
O460        C470   1.277       .  A
O461       Cu466   1.991       .  S
O461        C471   1.275       .  A
O462       Cu467   1.987       .  S
O463       Cu467   1.994       .  S
O464       Cu467   2.001       .  S
O465       Cu467   1.987       .  S
C468        C475   1.422       .  S
C469        C477   1.468       .  S
C470        C481   1.464       .  S
C471        C474   1.424       .  S
C472        C473   1.452       .  S
C472        C520   1.451       .  S
C473        C474   1.201       .  T
C475        C476   1.200       .  T
C477        C478   1.342       .  D
C477        H479   1.087       .  S
C481        C482   1.342       .  D
C482        H484   1.086       .  S
C485        C486   1.223       .  T
C487        C488   1.224       .  T
C489        C490   1.223       .  T
C491        C492   1.223       .  T
C493        C494   1.342       .  D
C494        H496   1.086       .  S
C497        C498   1.342       .  D
C498        H500   1.086       .  S
C501        C502   1.200       .  T
C503        C504   1.201       .  T
C505        C506   1.201       .  T
C507        C508   1.200       .  T
C509        C510   1.342       .  D
C509        H511   1.086       .  S
C513        C514   1.342       .  D
C513        H515   1.086       .  S
C517        C518   1.200       .  T
C519        C520   1.201       .  T
C521        C522   1.223       .  T
C523        C524   1.223       .  T
C525        C526   1.342   1_545  D
C525        H527   1.086       .  S
C529        C530   1.342   1_565  D
C530        H532   1.085       .  S
C533        C534   1.223       .  T
C535        C536   1.223       .  T
