geometry optimzed in LAMMPS
_audit_creation_date              2020-11-30 
_audit_creation_method            'lammps2cif' 
_symmetry_space_group_name_H-M    'P1' 
_symmetry_Int_Tables_number       1 
_symmetry_cell_setting            triclinic 
loop_ 
_symmetry_equiv_pos_as_xyz 
  x,y,z 
_cell_length_a                    26.17948816 
_cell_length_b                    28.462012404761595 
_cell_length_c                    43.48175519896722 
_cell_angle_alpha                 89.86255400634192 
_cell_angle_beta                  89.94718991089923 
_cell_angle_gamma                 89.54644124872678 
loop_ 
_atom_site_label 
_atom_site_type_symbol 
_atom_site_fract_x 
_atom_site_fract_y 
_atom_site_fract_z 
_atom_site_charge 
O1          O  0.50060580  0.94094422  0.47066268    -0.72000
O2          O  0.99244213  0.06587531  0.47256541    -0.72200
O3          O  0.06729806  0.00016126  0.47470844    -0.72100
O4          O  0.42558695  0.00629957  0.47521100    -0.72100
O5          O  0.42923370  0.99432137  0.02499503    -0.72100
O6          O  0.07527873  0.99567746  0.02575201    -0.72100
O7          O  0.49906608  0.06161384  0.03141700    -0.72000
O8          O  0.00269902  0.92948965  0.02037311    -0.72200
V9          V  0.99471603  0.99968202  0.47795952     1.35200
V10         V  0.00265370  0.99585254  0.02561703     1.35200
C11         C  0.00282105  0.91257936  0.99350171     0.77200
C12         C  0.00124782  0.08965024  0.01012326     0.77300
C13         C  0.09366405  0.00320895  0.49895885     0.77200
C14         C  0.39969087  0.00075899  0.49950834     0.77100
O15         O  0.07597168  0.00136017  0.27464379    -0.72000
O16         O  0.43061144  0.00136832  0.27298500    -0.72200
O17         O  0.00496312  0.93465930  0.27932934    -0.72100
O18         O  0.50303235  0.06766930  0.26846891    -0.72100
O19         O  0.00090047  0.06010900  0.22079472    -0.72100
O20         O  0.50293493  0.92678505  0.22822019    -0.72100
O21         O  0.43076121  0.99355947  0.22325192    -0.72000
O22         O  0.07529077  0.99418088  0.22487120    -0.72200
V23         V  0.00357282  0.00101418  0.27396899     1.35200
V24         V  0.50319598  0.99334689  0.22447876     1.35200
C25         C  0.10021854  0.99778125  0.24963995     0.77200
C26         C  0.40609576  0.99767894  0.24807711     0.77300
C27         C  0.00470239  0.90841408  0.25593465     0.77200
C28         C  0.00141354  0.08640757  0.24415253     0.77100
O29         O  0.31972770  0.00634129  0.47388911    -0.72000
O30         O  0.17426858  0.00541613  0.47320062    -0.72200
O31         O  0.24648892  0.07217925  0.47876861    -0.72100
O32         O  0.24893805  0.93959563  0.46825583    -0.72100
O33         O  0.25208549  0.92912950  0.01934734    -0.72100
O34         O  0.25117512  0.06172986  0.02993474    -0.72100
O35         O  0.17994320  0.99555741  0.02490020    -0.72000
O36         O  0.32469288  0.99517172  0.02454252    -0.72200
V37         V  0.24716329  0.00570818  0.47446393     1.35200
V38         V  0.25217196  0.99558382  0.02369728     1.35200
C39         C  0.34379639  0.00078726  0.49882264     0.77200
C40         C  0.14957975  0.00216918  0.49815362     0.77300
C41         C  0.24629955  0.08997183  0.50539056     0.77200
C42         C  0.24768649  0.91246589  0.49127857     0.77100
O43         O  0.32523276  0.99349069  0.22343336    -0.72000
O44         O  0.18022292  0.99318022  0.22439209    -0.72200
O45         O  0.25112770  0.05964493  0.21839285    -0.72100
O46         O  0.25305630  0.92707379  0.22943350    -0.72100
O47         O  0.25535457  0.93648462  0.27902730    -0.72100
O48         O  0.25306757  0.06902068  0.26799069    -0.72100
O49         O  0.18113853  0.00237209  0.27401779    -0.72000
O50         O  0.32601260  0.00301800  0.27303189    -0.72200
V51         V  0.25258604  0.99352941  0.22487364     1.35200
V52         V  0.25371289  0.00256080  0.27254405     1.35200
C53         C  0.35021266  0.99811523  0.24811844     0.77200
C54         C  0.15609411  0.99777482  0.24936354     0.77300
C55         C  0.25163185  0.08681103  0.24132544     0.77200
C56         C  0.25469962  0.90932734  0.25610302     0.77100
O57         O  0.03517444  0.63007111  0.49649162    -0.72000
O58         O  0.01745837  0.76092117  0.99537723    -0.72200
O59         O  0.02386453  0.69504803  0.03958396    -0.72100
O60         O  0.03020993  0.69764248  0.45300628    -0.72100
O61         O  0.44100198  0.69342523  0.45390462    -0.72100
O62         O  0.44779131  0.68400539  0.04131555    -0.72100
O63         O  0.43630824  0.75574069  0.50074928    -0.72000
O64         O  0.45211873  0.62138474  0.99551061    -0.72200
V65         V  0.02759579  0.69661279  0.49679342     1.35200
V66         V  0.44378031  0.68941884  0.49758290     1.35200
C67         C  0.99580669  0.60459211  0.49753322     0.77200
C68         C  0.97986165  0.78298296  0.49497389     0.77300
C69         C  0.98346362  0.68901513  0.05502911     0.77200
C70         C  0.98937540  0.69271553  0.43779399     0.77100
O71         O  0.03461450  0.62433149  0.24548501    -0.72000
O72         O  0.02376843  0.75750399  0.24693226    -0.72200
O73         O  0.02986537  0.69004989  0.28977627    -0.72100
O74         O  0.02848901  0.69204353  0.20247125    -0.72100
O75         O  0.44748363  0.68094054  0.20331745    -0.72100
O76         O  0.44362794  0.68946128  0.29035125    -0.72100
O77         O  0.43994599  0.75175271  0.24342500    -0.72000
O78         O  0.45139020  0.61869134  0.24977437    -0.72200
V79         V  0.02762048  0.69084803  0.24615697     1.35200
V80         V  0.44717478  0.68531565  0.24679232     1.35200
C81         C  0.99522032  0.59901850  0.24742944     0.77200
C82         C  0.98062825  0.77751872  0.24484345     0.77300
C83         C  0.98855193  0.69014686  0.30485734     0.77200
C84         C  0.98722323  0.68673598  0.18780600     0.77100
O85         O  0.28452650  0.62791737  0.50035490    -0.72000
O86         O  0.26827191  0.76039014  0.99806751    -0.72200
O87         O  0.27516446  0.69576900  0.04309751    -0.72100
O88         O  0.27767801  0.69399866  0.45616324    -0.72100
O89         O  0.19475405  0.69256022  0.45666449    -0.72100
O90         O  0.19312179  0.68524628  0.04411596    -0.72100
O91         O  0.18942161  0.75484573  0.50347080    -0.72000
O92         O  0.19682103  0.62205816  0.99836613    -0.72200
V93         V  0.27667039  0.69444328  0.49979948     1.35200
V94         V  0.19731756  0.68858522  0.50028728     1.35200
C95         C  0.24534488  0.60227512  0.49871087     0.77200
C96         C  0.22845690  0.78056941  0.50207898     0.77300
C97         C  0.23465953  0.69026970  0.05852839     0.77200
C98         C  0.23600071  0.69357843  0.44148724     0.77100
O99         O  0.28443640  0.62526410  0.24930511    -0.72000
O100        O  0.27241309  0.75835041  0.25080534    -0.72200
O101        O  0.27803552  0.69087244  0.29374322    -0.72100
O102        O  0.27860948  0.69307907  0.20635137    -0.72100
O103        O  0.19646002  0.68315364  0.20630894    -0.72100
O104        O  0.19512750  0.68900489  0.29346626    -0.72100
O105        O  0.18986569  0.75263237  0.24736641    -0.72000
O106        O  0.20188700  0.61956736  0.25184732    -0.72200
V107        V  0.27681248  0.69173125  0.25007072     1.35200
V108        V  0.19741293  0.68619522  0.24982948     1.35200
C109        C  0.24521203  0.59963879  0.25053274     0.77200
C110        C  0.22915442  0.77808741  0.24847924     0.77300
C111        C  0.23639790  0.69041788  0.30853158     0.77200
C112        C  0.23755946  0.68807839  0.19140744     0.77100
O113        O  0.46741680  0.37461493  0.49921374    -0.72000
O114        O  0.48343162  0.24006960  0.00282644    -0.72200
O115        O  0.47972789  0.30844311  0.04503037    -0.72100
O116        O  0.47239981  0.30537668  0.45737780    -0.72100
O117        O  0.05849159  0.31167992  0.45888679    -0.72100
O118        O  0.05820945  0.31095957  0.04486868    -0.72100
O119        O  0.06159660  0.24760518  0.50491429    -0.72000
O120        O  0.04908232  0.38025396  0.00281312    -0.72200
V121        V  0.47970946  0.30668871  0.00143165     1.35200
V122        V  0.05420411  0.31366194  0.00119109     1.35200
C123        C  0.00559739  0.39983186  0.00111688     0.77200
C124        C  0.02362261  0.22148125  0.00152032     0.77300
C125        C  0.52170541  0.30741141  0.05941184     0.77200
C126        C  0.51352230  0.30985463  0.44235578     0.77100
O127        O  0.47327316  0.37022645  0.25177980    -0.72000
O128        O  0.48449422  0.23712090  0.24890897    -0.72200
O129        O  0.47718550  0.30131100  0.29400661    -0.72100
O130        O  0.48048037  0.30603022  0.20686415    -0.72100
O131        O  0.06081797  0.30511184  0.20856446    -0.72100
O132        O  0.05927831  0.31362172  0.29578359    -0.72100
O133        O  0.06516185  0.24275771  0.25556461    -0.72000
O134        O  0.05486991  0.37578056  0.24920448    -0.72200
V135        V  0.48042382  0.30376350  0.25040148     1.35200
V136        V  0.05850873  0.30918265  0.25222568     1.35200
C137        C  0.01179118  0.39617571  0.25046611     0.77200
C138        C  0.02564655  0.21766244  0.25399622     0.77300
C139        C  0.51751705  0.30703413  0.30948864     0.77200
C140        C  0.52241274  0.30559473  0.19241896     0.77100
O141        O  0.22144647  0.37449976  0.49741242    -0.72000
O142        O  0.23119811  0.24026162  0.00053938    -0.72200
O143        O  0.22649486  0.30887150  0.04276502    -0.72100
O144        O  0.22611104  0.30642212  0.45490107    -0.72100
O145        O  0.30827602  0.31629486  0.45487098    -0.72100
O146        O  0.30942835  0.30835307  0.04175956    -0.72100
O147        O  0.31319421  0.24563554  0.49541418    -0.72000
O148        O  0.30180248  0.37897810  0.00079750    -0.72200
V149        V  0.22759337  0.30798212  0.49855022     1.35200
V150        V  0.30707080  0.31212390  0.49841228     1.35200
C151        C  0.26112529  0.39942457  0.49924856     0.77200
C152        C  0.27341521  0.22085255  0.49686638     0.75700
C153        C  0.26842888  0.30846104  0.05718864     0.77200
C154        C  0.26718638  0.31158897  0.43996807     0.77100
O155        O  0.22310141  0.37150627  0.24996821    -0.72000
O156        O  0.23349612  0.23835320  0.24699953    -0.72200
O157        O  0.22793146  0.30273019  0.29210823    -0.72100
O158        O  0.22864942  0.30746305  0.20491857    -0.72100
O159        O  0.31159144  0.30606229  0.20517717    -0.72100
O160        O  0.30990604  0.31378596  0.29238493    -0.72100
O161        O  0.31590122  0.24329955  0.25187703    -0.72000
O162        O  0.30559637  0.37644258  0.24625892    -0.72200
V163        V  0.22984167  0.30506631  0.24848410     1.35200
V164        V  0.30924978  0.30976372  0.24883897     1.35200
C165        C  0.26253783  0.39677346  0.24815259     0.77200
C166        C  0.27642206  0.21819019  0.25004512     0.77300
C167        C  0.26868247  0.30869595  0.30716244     0.77200
C168        C  0.27024078  0.30686253  0.19011710     0.77100
C169        C  0.22257266  0.30151323  0.38956725    -0.13600
C170        C  0.26731639  0.31163743  0.40599489     0.08600
C171        C  0.31242950  0.32106569  0.38966383    -0.13600
C172        C  0.31285358  0.32015234  0.35755146    -0.13600
C173        C  0.26816448  0.30980741  0.34112385     0.08600
C174        C  0.22299127  0.30060639  0.35744663    -0.13600
H175        H  0.18735351  0.29378970  0.40154481     0.12600
H176        H  0.34742586  0.32921044  0.40170368     0.12600
H177        H  0.34815469  0.32767674  0.34558822     0.12600
H178        H  0.18805077  0.29232684  0.34539522     0.12600
C179        C  0.22408461  0.31608602  0.10787287    -0.13600
C180        C  0.26929035  0.30826994  0.09118354     0.08600
C181        C  0.31508355  0.30035203  0.10728134    -0.13600
C182        C  0.31553434  0.29991316  0.13945664    -0.13600
C183        C  0.27020155  0.30740120  0.15611507     0.08600
C184        C  0.22453253  0.31566112  0.13997894    -0.13600
H185        H  0.18837432  0.32287064  0.09609445     0.12600
H186        H  0.35043661  0.29403487  0.09499350     0.12600
H187        H  0.35121708  0.29328076  0.15129453     0.12600
H188        H  0.18913548  0.32213377  0.15218507     0.12600
C189        C  0.06309775  0.31794537  0.39325128    -0.13600
C190        C  0.51402951  0.30912708  0.40836933     0.08600
C191        C  0.46974181  0.29842601  0.39164901    -0.13600
C192        C  0.47079535  0.29764194  0.35948337    -0.13600
C193        C  0.51615577  0.30754973  0.34347153     0.08600
C194        C  0.06319543  0.31761055  0.36109607    -0.13600
H195        H  0.09854709  0.32427610  0.40528645     0.12600
H196        H  0.43440759  0.29038552  0.40342106     0.12600
H197        H  0.43619045  0.28908729  0.34716160     0.12600
H198        H  0.09879962  0.32356987  0.34908692     0.12600
C199        C  0.47681689  0.31191228  0.11001509    -0.13600
C200        C  0.52251629  0.30656357  0.09342936     0.08600
C201        C  0.06440031  0.30212554  0.11053583    -0.13600
C202        C  0.06483383  0.30053579  0.14272024    -0.13600
C203        C  0.52293018  0.30563866  0.15839724     0.08600
C204        C  0.47702608  0.31146634  0.14209273    -0.13600
H205        H  0.44081250  0.31684991  0.09818697     0.12600
H206        H  0.09976415  0.29632781  0.09816324     0.12600
H207        H  0.10056206  0.29375267  0.15447848     0.12600
H208        H  0.44117051  0.31610003  0.15415661     0.12600
C209        C  0.20674433  0.51958095  0.25503748    -0.13600
C210        C  0.24982683  0.54774997  0.25012002     0.08600
C211        C  0.29718735  0.52585823  0.24437804    -0.13600
C212        C  0.30137587  0.47683026  0.24360987    -0.13600
C213        C  0.25826535  0.44868180  0.24856006     0.08600
C214        C  0.21093169  0.47060268  0.25428664    -0.13600
H215        H  0.16980042  0.53539200  0.25964663     0.12600
H216        H  0.33093364  0.54666825  0.24020530     0.12600
H217        H  0.33828134  0.46097597  0.23897456     0.12600
H218        H  0.17713010  0.44985180  0.25843079     0.12600
C219        C  0.20730603  0.52273854  0.49122290    -0.13600
C220        C  0.24982623  0.55041749  0.49845488     0.08600
C221        C  0.29247718  0.52810940  0.00408134    -0.13600
C222        C  0.29696496  0.47910269  0.00413745    -0.13600
C223        C  0.25737030  0.45132766  0.49908844     0.08600
C224        C  0.21103977  0.47373945  0.49153233    -0.13600
H225        H  0.17115718  0.53896800  0.48515897     0.12600
H226        H  0.32643261  0.54887406  0.00766224     0.12600
H227        H  0.33424029  0.46330878  0.00773291     0.12600
H228        H  0.17770601  0.45337382  0.48563464     0.12600
C229        C  0.19088972  0.68289187  0.35902037    -0.13600
C230        C  0.23603482  0.69166457  0.34253860     0.08600
C231        C  0.28089639  0.70173541  0.35885409    -0.13600
C232        C  0.28071629  0.70276693  0.39098172    -0.13600
C233        C  0.23569231  0.69371132  0.40747955     0.08600
C234        C  0.19074925  0.68388860  0.39117932    -0.13600
H235        H  0.15591194  0.67464818  0.34707333     0.12600
H236        H  0.31605940  0.70919440  0.34676812     0.12600
H237        H  0.31577778  0.71091750  0.40293734     0.12600
H238        H  0.15563090  0.67622530  0.40332681     0.12600
C239        C  0.28144071  0.69751247  0.10854714    -0.13600
C240        C  0.23570435  0.68967643  0.09251237     0.08600
C241        C  0.19079453  0.68120612  0.10925796    -0.13600
C242        C  0.19156160  0.68052625  0.14135151    -0.13600
C243        C  0.23724733  0.68831869  0.15741682     0.08600
C244        C  0.28220342  0.69684249  0.14070362    -0.13600
H245        H  0.31660183  0.70432824  0.09625145     0.12600
H246        H  0.15500654  0.67493555  0.09756119     0.12600
H247        H  0.15632067  0.67380084  0.15358988     0.12600
H248        H  0.31789447  0.70324009  0.15247263     0.12600
C249        C  0.04693352  0.52476388  0.24349049    -0.13600
C250        C  0.99945211  0.54711731  0.24792772     0.08600
C251        C  0.45617570  0.51863048  0.25469950    -0.13600
C252        C  0.46052024  0.46960976  0.25485965    -0.13600
C253        C  0.00757689  0.44804809  0.24940603     0.08600
C254        C  0.05095494  0.47574358  0.24422120    -0.13600
H255        H  0.08098737  0.54518022  0.23936047     0.12600
H256        H  0.41900555  0.53453523  0.25837008     0.12600
H257        H  0.42657235  0.44891286  0.25867961     0.12600
H258        H  0.08799402  0.45952552  0.24062630     0.12600
C259        C  0.04759982  0.53031782  0.50216234    -0.13600
C260        C  0.99997902  0.55271379  0.49836081     0.08600
C261        C  0.45654974  0.52118386  0.99331249    -0.13600
C262        C  0.46061873  0.47220103  0.99460924    -0.13600
C263        C  0.00066319  0.45168452  0.99952247     0.08600
C264        C  0.05113039  0.48123207  0.50308240    -0.13600
H265        H  0.08205180  0.55074881  0.50464569     0.12600
H266        H  0.41979015  0.53699077  0.98814197     0.12600
H267        H  0.42691877  0.45143341  0.99025843     0.12600
H268        H  0.08825206  0.46492080  0.50621793     0.12600
C269        C  0.43714810  0.68610479  0.38814830    -0.13600
C270        C  0.98951742  0.69223673  0.40377509     0.08600
C271        C  0.03452262  0.70080892  0.38715483    -0.13600
C272        C  0.03425893  0.70016858  0.35498782    -0.13600
C273        C  0.98891014  0.69111467  0.33884001     0.08600
C274        C  0.43775297  0.68512008  0.35597870    -0.13600
H275        H  0.40173380  0.67905752  0.40010565     0.12600
H276        H  0.06987457  0.70832289  0.39902288     0.12600
H277        H  0.06935488  0.70717002  0.34274711     0.12600
H278        H  0.40278742  0.67745550  0.34381101     0.12600
C279        C  0.44430536  0.67848478  0.10626895    -0.13600
C280        C  0.98477115  0.68750425  0.08897306     0.08600
C281        C  0.02971699  0.69857267  0.10492944    -0.13600
C282        C  0.03063903  0.69799157  0.13705389    -0.13600
C283        C  0.98663174  0.68633185  0.15383909     0.08600
C284        C  0.44435877  0.67737567  0.13835249    -0.13600
H285        H  0.40873232  0.67256234  0.09425510     0.12600
H286        H  0.06403626  0.70820115  0.09259084     0.12600
H287        H  0.06563791  0.70720931  0.14874780     0.12600
H288        H  0.40880135  0.67072740  0.15026755     0.12600
C289        C  0.28042146  0.16669460  0.25263258    -0.16700
C290        C  0.24938640  0.13807719  0.23702856    -0.31800
H291        H  0.31010335  0.15190533  0.26728663     0.12400
H292        H  0.22291467  0.15245260  0.22015831     0.12900
C293        C  0.25716739  0.85813796  0.26041592    -0.16700
C294        C  0.22461225  0.82952841  0.24599745    -0.31800
H295        H  0.28528184  0.84380445  0.27631391     0.12400
H296        H  0.19356746  0.84425474  0.23237373     0.12900
C297        C  0.27683234  0.16938752  0.49426063    -0.16700
C298        C  0.24483645  0.14118056  0.50957494    -0.31800
H299        H  0.30667386  0.15430454  0.47986706     0.12400
H300        H  0.22305124  0.15434818  0.02829273     0.12900
C301        C  0.22340260  0.83190061  0.50485893    -0.16700
C302        C  0.25051453  0.86118684  0.48715603    -0.31800
H303        H  0.19069809  0.84714093  0.01692488     0.12400
H304        H  0.27434741  0.84725633  0.46878641     0.12900
C305        C  0.99877373  0.13777396  0.24060394    -0.16700
C306        C  0.02965320  0.16616247  0.25648764    -0.31800
H307        H  0.97232457  0.15245485  0.22383080     0.12400
H308        H  0.56125666  0.15044107  0.26870327     0.12900
C309        C  0.97644193  0.82900958  0.24288264    -0.16700
C310        C  0.00689786  0.85703276  0.25934258    -0.31800
H311        H  0.44568707  0.84353893  0.22751945     0.12400
H312        H  0.03288134  0.84201356  0.27625401     0.12900
C313        C  0.02884710  0.17006429  0.99914871    -0.16700
C314        C  0.99861483  0.14077757  0.01489786    -0.31800
H315        H  0.55523135  0.15463374  0.48509622     0.12400
H316        H  0.97205314  0.15451253  0.03192511     0.12900
C317        C  0.00452869  0.86147792  0.98855583    -0.16700
C318        C  0.97503772  0.83436614  0.49283586    -0.31800
H319        H  0.53114549  0.84857656  0.47243679     0.12400
H320        H  0.94068822  0.84731310  0.01643789     0.12900
O321        O  0.50591746  0.93905491  0.97071248    -0.72000
O322        O  0.00186928  0.07267684  0.98327566    -0.72200
O323        O  0.07417104  0.00642233  0.97623086    -0.72100
O324        O  0.43075132  0.00437639  0.97541995    -0.72100
O325        O  0.42297105  0.99542416  0.52469815    -0.72100
O326        O  0.07084928  0.00679508  0.52446281    -0.72100
O327        O  0.49275644  0.06252511  0.53222282    -0.72000
O328        O  0.00032430  0.94047766  0.53107405    -0.72200
V329        V  0.00183478  0.00637938  0.97804544     1.35200
V330        V  0.99859878  0.00678776  0.52571460     1.35200
C331        C  0.99890106  0.91425913  0.50769362     0.77200
C332        C  0.99451544  0.09215916  0.49586316     0.77300
C333        C  0.09931929  0.00089173  0.00072978     0.77200
C334        C  0.40538244  0.99933926  0.99997474     0.77100
O335        O  0.07129476  0.00428802  0.77374452    -0.72000
O336        O  0.42644489  0.00149111  0.77345631    -0.72200
O337        O  0.00023139  0.93758043  0.77874822    -0.72100
O338        O  0.49873937  0.06770174  0.76842413    -0.72100
O339        O  0.99732744  0.06193243  0.71914022    -0.72100
O340        O  0.49935525  0.92640072  0.72890421    -0.72100
O341        O  0.42636162  0.99267321  0.72380040    -0.72000
O342        O  0.07110258  0.99553986  0.72408130    -0.72200
V343        V  0.99893821  0.00382881  0.77283193     1.35200
V344        V  0.49877638  0.99295661  0.72480121     1.35200
C345        C  0.09579321  0.99995868  0.74888979     0.77200
C346        C  0.40179888  0.99758377  0.74860076     0.77300
C347        C  0.99948168  0.91089805  0.75557419     0.77200
C348        C  0.99729832  0.08864460  0.74230148     0.77100
O349        O  0.32495561  0.00449825  0.97489966    -0.72000
O350        O  0.17967698  0.00507228  0.97526938    -0.72200
O351        O  0.25247094  0.07107365  0.98029754    -0.72100
O352        O  0.25319937  0.93852793  0.96970626    -0.72100
O353        O  0.24536177  0.93033286  0.51785288    -0.72100
O354        O  0.24634851  0.06285567  0.52842287    -0.72100
O355        O  0.17411641  0.99801934  0.52297834    -0.72000
O356        O  0.31866500  0.99546253  0.52339747    -0.72200
V357        V  0.25242789  0.00461481  0.97599546     1.35200
V358        V  0.24625408  0.99679738  0.52216639     1.35200
C359        C  0.34944049  0.99961689  0.99973370     0.77200
C360        C  0.15521335  0.00049483  0.00021259     0.77300
C361        C  0.25138237  0.08888796  0.00690268     0.77200
C362        C  0.25274788  0.91137380  0.99272108     0.77100
O363        O  0.32109647  0.99453062  0.72376622    -0.72000
O364        O  0.17612060  0.99501437  0.72404374    -0.72200
O365        O  0.24745302  0.06116267  0.71807667    -0.72100
O366        O  0.24851120  0.92871080  0.72979588    -0.72100
O367        O  0.25002874  0.93869370  0.77935305    -0.72100
O368        O  0.24910038  0.07105276  0.76763182    -0.72100
O369        O  0.17644976  0.00502266  0.77360222    -0.72000
O370        O  0.32147000  0.00443468  0.77333188    -0.72200
V371        V  0.24846744  0.99507900  0.72488232     1.35200
V372        V  0.24908928  0.00465921  0.77250795     1.35200
C373        C  0.34588592  0.99890317  0.74853832     0.77200
C374        C  0.15168877  0.00001962  0.74886641     0.77300
C375        C  0.24793130  0.08857859  0.74089043     0.77200
C376        C  0.24962478  0.91127882  0.75656501     0.77100
O377        O  0.02712202  0.62776201  0.99662324    -0.72000
O378        O  0.02316085  0.76332401  0.49739918    -0.72200
O379        O  0.02798508  0.69577825  0.54047930    -0.72100
O380        O  0.02053869  0.69336445  0.95235957    -0.72100
O381        O  0.44538097  0.69166494  0.95414511    -0.72100
O382        O  0.44362036  0.68492432  0.54116486    -0.72100
O383        O  0.44106540  0.75440043  0.00066878    -0.72000
O384        O  0.44800345  0.62290260  0.49487736    -0.72200
V385        V  0.02068045  0.69420888  0.99596348     1.35200
V386        V  0.44813039  0.68801070  0.99779874     1.35200
C387        C  0.98756305  0.60262219  0.99528754     0.77200
C388        C  0.97479021  0.78123985  0.99912556     0.77300
C389        C  0.98606155  0.69458872  0.55494080     0.77200
C390        C  0.97852802  0.69450497  0.93802703     0.77100
O391        O  0.02525629  0.62655540  0.74586772    -0.72000
O392        O  0.01587632  0.75971910  0.74830029    -0.72200
O393        O  0.01915933  0.69112322  0.79053704    -0.72100
O394        O  0.02195289  0.69517459  0.70337009    -0.72100
O395        O  0.44616368  0.68002326  0.70356549    -0.72100
O396        O  0.44440829  0.68942342  0.79069976    -0.72100
O397        O  0.43977703  0.75114884  0.74347246    -0.72000
O398        O  0.45078883  0.61829392  0.75028981    -0.72200
V399        V  0.01898714  0.69304850  0.74698689     1.35200
V400        V  0.44680678  0.68482149  0.74707632     1.35200
C401        C  0.98560558  0.60157318  0.74760937     0.77200
C402        C  0.97318332  0.78022580  0.74514276     0.77300
C403        C  0.97729967  0.69239984  0.80504171     0.77200
C404        C  0.98144596  0.69018605  0.68792141     0.77100
O405        O  0.27940133  0.62735656  0.00079313    -0.72000
O406        O  0.27182840  0.76116676  0.49921256    -0.72200
O407        O  0.27880092  0.69514771  0.54349194    -0.72100
O408        O  0.27236463  0.69194180  0.95590953    -0.72100
O409        O  0.18944063  0.69213141  0.95686897    -0.72100
O410        O  0.19682146  0.68414451  0.54379442    -0.72100
O411        O  0.18589347  0.75528416  0.00312141    -0.72000
O412        O  0.20200861  0.62214558  0.49751994    -0.72200
V413        V  0.27221941  0.69377393  0.99947409     1.35200
V414        V  0.19282753  0.68878076  0.00053992     1.35200
C415        C  0.24007259  0.60190993  0.99955203     0.77200
C416        C  0.22531524  0.78046777  0.00106099     0.77300
C417        C  0.23800745  0.68910171  0.55856246     0.77200
C418        C  0.23046927  0.69221056  0.94145655     0.77100
O419        O  0.28058441  0.62712765  0.74966778    -0.72000
O420        O  0.26870001  0.76024722  0.75136390    -0.72200
O421        O  0.27293639  0.69221842  0.79406951    -0.72100
O422        O  0.27637800  0.69509619  0.70684543    -0.72100
O423        O  0.19437298  0.68435573  0.70581688    -0.72100
O424        O  0.19002387  0.69186529  0.79298948    -0.72100
O425        O  0.18637882  0.75457594  0.74629795    -0.72000
O426        O  0.19799064  0.62164850  0.75183870    -0.72200
V427        V  0.27309155  0.69358565  0.75049069     1.35200
V428        V  0.19372801  0.68822995  0.74933841     1.35200
C429        C  0.24126908  0.60160263  0.75074512     0.77200
C430        C  0.22558939  0.77999358  0.74814621     0.77300
C431        C  0.23094045  0.69229179  0.80846135     0.77200
C432        C  0.23598500  0.68929909  0.69141765     0.77100
O433        O  0.47276845  0.37310631  0.00010039    -0.72000
O434        O  0.47768470  0.24144186  0.50297543    -0.72200
O435        O  0.47297732  0.31021643  0.54476614    -0.72100
O436        O  0.47671813  0.30469933  0.95777403    -0.72100
O437        O  0.05319972  0.31653877  0.95762363    -0.72100
O438        O  0.05616972  0.31677764  0.54622899    -0.72100
O439        O  0.06240471  0.24733662  0.99896492    -0.72000
O440        O  0.05333019  0.38082856  0.50077510    -0.72200
V441        V  0.47416028  0.30808224  0.50109886     1.35200
V442        V  0.05582766  0.31413783  0.50260763     1.35200
C443        C  0.01050070  0.40168829  0.50108482     0.77200
C444        C  0.02167157  0.22301513  0.50392347     0.77300
C445        C  0.51467774  0.31026181  0.55946004     0.77200
C446        C  0.51718854  0.31046251  0.94233286     0.77100
O447        O  0.46996623  0.37003540  0.75159466    -0.72000
O448        O  0.47999366  0.23685183  0.74985449    -0.72200
O449        O  0.47481345  0.30213353  0.79447472    -0.72100
O450        O  0.47506087  0.30468877  0.70717199    -0.72100
O451        O  0.05221006  0.30875759  0.70887198    -0.72100
O452        O  0.04951273  0.31541776  0.79586119    -0.72100
O453        O  0.05648877  0.24548042  0.75523416    -0.72000
O454        O  0.04510615  0.37843342  0.74996515    -0.72200
V455        V  0.47653203  0.30351138  0.75078005     1.35200
V456        V  0.04922791  0.31186950  0.75241413     1.35200
C457        C  0.00186962  0.39856326  0.75067980     0.77200
C458        C  0.01719208  0.22009559  0.75386907     0.77300
C459        C  0.51582995  0.30729719  0.80940887     0.77200
C460        C  0.51657640  0.30505244  0.69229687     0.77100
O461        O  0.21929019  0.37341035  0.99787275    -0.72000
O462        O  0.23062314  0.24130424  0.49965255    -0.72200
O463        O  0.22597482  0.30928892  0.54216441    -0.72100
O464        O  0.22406233  0.30495344  0.95548105    -0.72100
O465        O  0.30593058  0.31654179  0.95463450    -0.72100
O466        O  0.30891682  0.30821610  0.54205809    -0.72100
O467        O  0.31345963  0.24598345  0.99510122    -0.72000
O468        O  0.30400319  0.37876875  0.50099075    -0.72200
V469        V  0.22679110  0.30696625  0.99915259     1.35200
V470        V  0.30613133  0.31235742  0.99815662     1.35200
C471        C  0.25850413  0.39898794  0.99948925     0.77200
C472        C  0.27429291  0.22050639  0.99723077     0.75700
C473        C  0.26744952  0.30847328  0.55704878     0.77200
C474        C  0.26458760  0.31095221  0.94012979     0.77100
O475        O  0.21860235  0.37339799  0.74937680    -0.72000
O476        O  0.22899315  0.24015430  0.74732234    -0.72200
O477        O  0.22309656  0.30515973  0.79208416    -0.72100
O478        O  0.22450980  0.30840207  0.70475170    -0.72100
O479        O  0.30743717  0.30871848  0.70528893    -0.72100
O480        O  0.30527728  0.31484967  0.79248665    -0.72100
O481        O  0.31150437  0.24513714  0.75150743    -0.72000
O482        O  0.30121275  0.37832617  0.74687607    -0.72200
V483        V  0.22536210  0.30688474  0.74838267     1.35200
V484        V  0.30480264  0.31163309  0.74894480     1.35200
C485        C  0.25811246  0.39866792  0.74817068     0.77200
C486        C  0.27199738  0.22002140  0.74998761     0.77300
C487        C  0.26394447  0.31023293  0.80721107     0.77200
C488        C  0.26624491  0.30841146  0.69008214     0.77100
C489        C  0.21874227  0.30198078  0.88989498    -0.13600
C490        C  0.26395984  0.31117332  0.90613297     0.08600
C491        C  0.30895003  0.32019381  0.88957743    -0.13600
C492        C  0.30881023  0.31994264  0.85747853    -0.13600
C493        C  0.26366676  0.31070293  0.84120718     0.08600
C494        C  0.21858954  0.30177561  0.85772634    -0.13600
H495        H  0.18354812  0.29470473  0.90204081     0.12600
H496        H  0.34436245  0.32749747  0.90142790     0.12600
H497        H  0.34410482  0.32709603  0.84540186     0.12600
H498        H  0.18326826  0.29437931  0.84580146     0.12600
C499        C  0.22108464  0.30488315  0.60737307    -0.13600
C500        C  0.26730003  0.30808076  0.59107451     0.08600
C501        C  0.31320943  0.31136400  0.60759834    -0.13600
C502        C  0.31293234  0.31138967  0.63976014    -0.13600
C503        C  0.26671419  0.30815991  0.65605176     0.08600
C504        C  0.22079261  0.30492846  0.63950857    -0.13600
H505        H  0.18508807  0.30225313  0.59528447     0.12600
H506        H  0.34928816  0.31433811  0.59564272     0.12600
H507        H  0.34884919  0.31429377  0.65187577     0.12600
H508        H  0.18457515  0.30232720  0.65139888     0.12600
C509        C  0.05484000  0.31963078  0.89261687    -0.13600
C510        C  0.51631216  0.31051944  0.90832889     0.08600
C511        C  0.47122989  0.30020586  0.89225766    -0.13600
C512        C  0.47094462  0.29925879  0.86009764    -0.13600
C513        C  0.51575001  0.30857836  0.84340338     0.08600
C514        C  0.05393558  0.31987985  0.86054922    -0.13600
H515        H  0.09057701  0.32657835  0.90420385     0.12600
H516        H  0.43627519  0.29245950  0.90453542     0.12600
H517        H  0.43576352  0.29088508  0.84832058     0.12600
H518        H  0.08905120  0.32694571  0.84825692     0.12600
C519        C  0.47112171  0.29684155  0.60989301    -0.13600
C520        C  0.51525316  0.30904688  0.59343681     0.08600
C521        C  0.05806295  0.32155501  0.61167630    -0.13600
C522        C  0.05733160  0.31991034  0.64379493    -0.13600
C523        C  0.51644786  0.30573276  0.65831608     0.08600
C524        C  0.47169635  0.29522989  0.64200870    -0.13600
H525        H  0.43634372  0.28794327  0.59790426     0.12600
H526        H  0.09322625  0.33080258  0.60010617     0.12600
H527        H  0.09188029  0.32814658  0.65627094     0.12600
H528        H  0.43722930  0.28537545  0.65409531     0.12600
C529        C  0.20185416  0.52167110  0.75202309    -0.13600
C530        C  0.24571661  0.54970024  0.75033967     0.08600
C531        C  0.29374837  0.52765427  0.74772385    -0.13600
C532        C  0.29782311  0.47862869  0.74686469    -0.13600
C533        C  0.25393582  0.45060660  0.74859826     0.08600
C534        C  0.20592617  0.47268584  0.75116963    -0.13600
H535        H  0.16431915  0.53758822  0.75402499     0.12600
H536        H  0.32818358  0.54833243  0.74617959     0.12600
H537        H  0.33531012  0.46267750  0.74478822     0.12600
H538        H  0.17143754  0.45206459  0.75264333     0.12600
C539        C  0.20154101  0.52178586  0.99520763    -0.13600
C540        C  0.24471374  0.54999384  0.99959293     0.08600
C541        C  0.29626071  0.52804775  0.50588222    -0.13600
C542        C  0.29999524  0.47897399  0.50620403    -0.13600
C543        C  0.25378605  0.45089626  0.99970186     0.08600
C544        C  0.20602968  0.47277826  0.99525572    -0.13600
H545        H  0.16432392  0.53759663  0.99152595     0.12600
H546        H  0.32954832  0.54848042  0.51179150     0.12600
H547        H  0.33610248  0.46267344  0.51228474     0.12600
H548        H  0.17213576  0.45198837  0.99159116     0.12600
C549        C  0.18399933  0.69681899  0.85881894    -0.13600
C550        C  0.23015841  0.69257970  0.84247895     0.08600
C551        C  0.27607643  0.68833590  0.85896002    -0.13600
C552        C  0.27596183  0.68826270  0.89103810    -0.13600
C553        C  0.22993029  0.69245221  0.90744092     0.08600
C554        C  0.18389008  0.69676652  0.89102906    -0.13600
H555        H  0.14806832  0.70037600  0.84671574     0.12600
H556        H  0.31220734  0.68475761  0.84705085     0.12600
H557        H  0.31202419  0.68465845  0.90301230     0.12600
H558        H  0.14790406  0.70031674  0.90308616     0.12600
C559        C  0.28315332  0.69672689  0.60912171    -0.13600
C560        C  0.23812194  0.68819894  0.59254662     0.08600
C561        C  0.19273994  0.67942313  0.60875193    -0.13600
C562        C  0.19223088  0.67956486  0.64083877    -0.13600
C563        C  0.23710088  0.68844394  0.65744794     0.08600
C564        C  0.28266012  0.69682073  0.64128697    -0.13600
H565        H  0.31862315  0.70381002  0.59723673     0.12600
H566        H  0.15749067  0.67253155  0.59662993     0.12600
H567        H  0.15661052  0.67275620  0.65264431     0.12600
H568        H  0.31779386  0.70388623  0.65348729     0.12600
C569        C  0.03710011  0.52717184  0.74415815    -0.13600
C570        C  0.98960039  0.54961969  0.74834526     0.08600
C571        C  0.45498077  0.51852083  0.75538660    -0.13600
C572        C  0.45874213  0.46950285  0.75563780    -0.13600
C573        C  0.99758523  0.45047680  0.74986699     0.08600
C574        C  0.04105509  0.47816096  0.74492296    -0.13600
H575        H  0.07125790  0.54750816  0.74016332     0.12600
H576        H  0.41838076  0.53481927  0.76022860     0.12600
H577        H  0.42497995  0.44916961  0.76070667     0.12600
H578        H  0.07814123  0.46194028  0.74148947     0.12600
C579        C  0.03961987  0.52900296  0.00080402    -0.13600
C580        C  0.99188047  0.55068213  0.99595263     0.08600
C581        C  0.45255950  0.52295783  0.49058865    -0.13600
C582        C  0.45626662  0.47392926  0.49185274    -0.13600
C583        C  0.00709356  0.45361291  0.50022409     0.08600
C584        C  0.04397075  0.48011134  0.00256380    -0.13600
H585        H  0.07364685  0.54991215  0.00361450     0.12600
H586        H  0.41605960  0.53897985  0.48505179     0.12600
H587        H  0.42259509  0.45332297  0.48712144     0.12600
H588        H  0.08125937  0.46458409  0.00651602     0.12600
C589        C  0.44035964  0.69824660  0.88849017    -0.13600
C590        C  0.97765716  0.69468781  0.90400833     0.08600
C591        C  0.02265436  0.68526653  0.88746683    -0.13600
C592        C  0.02229314  0.68453364  0.85538794    -0.13600
C593        C  0.97692590  0.69320125  0.83905282     0.08600
C594        C  0.44013149  0.69760712  0.85630328    -0.13600
H595        H  0.40485776  0.70478643  0.90058410     0.12600
H596        H  0.05812316  0.67786529  0.89934417     0.12600
H597        H  0.05754911  0.67671013  0.84335154     0.12600
H598        H  0.40449455  0.70371756  0.84429727     0.12600
C599        C  0.44152743  0.67680086  0.60632365    -0.13600
C600        C  0.98490534  0.69374703  0.58895268     0.08600
C601        C  0.03012441  0.69861863  0.60598686    -0.13600
C602        C  0.02901569  0.69726033  0.63812111    -0.13600
C603        C  0.98268905  0.69085074  0.65389448     0.08600
C604        C  0.44210300  0.67573556  0.63843657    -0.13600
H605        H  0.40620620  0.66923680  0.59446565     0.12600
H606        H  0.06636767  0.70367007  0.59448181     0.12600
H607        H  0.06443522  0.70140870  0.65061661     0.12600
H608        H  0.40714146  0.66750987  0.65055581     0.12600
C609        C  0.27607397  0.16854132  0.75255814    -0.16700
C610        C  0.24590035  0.13983823  0.73641126    -0.31800
H611        H  0.30512355  0.15383425  0.76769458     0.12400
H612        H  0.22017635  0.15415038  0.71910549     0.12900
C613        C  0.25176667  0.86014569  0.76115162    -0.16700
C614        C  0.22113305  0.83137234  0.74543192    -0.31800
H615        H  0.27801420  0.84597861  0.77822308     0.12400
H616        H  0.19163447  0.84591603  0.73054261     0.12900
C617        C  0.27882107  0.16905201  0.99473674    -0.16700
C618        C  0.24890859  0.14015948  0.01103184    -0.31800
H619        H  0.30800872  0.15454791  0.97962714     0.12400
H620        H  0.21816859  0.15584481  0.52621167     0.12900
C621        C  0.22138930  0.83198945  0.00322166    -0.16700
C622        C  0.25428431  0.86015767  0.98855568    -0.31800
H623        H  0.19587392  0.84593148  0.52122570     0.12400
H624        H  0.28208267  0.84543836  0.97262190     0.12900
C625        C  0.99473222  0.13997084  0.73840563    -0.16700
C626        C  0.02172834  0.16871423  0.75642766    -0.31800
H627        H  0.97140768  0.15436983  0.71993543     0.12400
H628        H  0.55625395  0.14990242  0.76884012     0.12900
C629        C  0.96980637  0.83176050  0.74305600    -0.16700
C630        C  0.00071100  0.85955775  0.75938971    -0.31800
H631        H  0.44626737  0.84238894  0.72683599     0.12400
H632        H  0.02636088  0.84442196  0.77643815     0.12900
C633        C  0.02509677  0.17154453  0.50653303    -0.16700
C634        C  0.99188336  0.14345166  0.49226692    -0.31800
H635        H  0.55993571  0.15342988  0.98279502     0.12400
H636        H  0.96367758  0.15824866  0.47660607     0.12900
C637        C  0.00195691  0.86287189  0.51105763    -0.16700
C638        C  0.97139160  0.83269358  0.00250196    -0.31800
H639        H  0.53889165  0.84687450  0.97388161     0.12400
H640        H  0.94764443  0.84907279  0.47662351     0.12900
O641        O  0.99592949  0.93311971  0.48138851    -0.72000
O642        O  0.49693463  0.07305139  0.48273956    -0.72200
O643        O  0.57050177  0.00775434  0.47827182    -0.72100
O644        O  0.92250184  0.99916341  0.47926393    -0.72100
O645        O  0.93029229  0.99568219  0.02740091    -0.72100
O646        O  0.57406204  0.99652228  0.02686445    -0.72100
O647        O  0.00159476  0.06178241  0.03278658    -0.72000
O648        O  0.50324017  0.92905184  0.02027998    -0.72200
V649        V  0.49818228  0.00680464  0.47768984     1.35200
V650        V  0.50154088  0.99553960  0.02492609     1.35200
C651        C  0.50563837  0.91161660  0.99357794     0.77200
C652        C  0.50017451  0.08893919  0.00848279     0.77300
C653        C  0.59373705  0.00266805  0.50350717     0.77200
C654        C  0.89967267  0.00314034  0.50473726     0.77100
O655        O  0.57540708  0.00127023  0.27354273    -0.72000
O656        O  0.93091755  0.00101763  0.27520387    -0.72200
O657        O  0.50414877  0.93483126  0.27792960    -0.72100
O658        O  0.00309701  0.06764223  0.27052635    -0.72100
O659        O  0.50249883  0.05959858  0.21875275    -0.72100
O660        O  0.00357119  0.92723051  0.22957737    -0.72100
O661        O  0.93048461  0.99308113  0.22547979    -0.72000
O662        O  0.57589939  0.99282814  0.22385643    -0.72200
V663        V  0.50313463  0.00111481  0.27225205     1.35200
V664        V  0.00274779  0.99380218  0.22616061     1.35200
C665        C  0.60024829  0.99692997  0.24883054     0.77200
C666        C  0.90611912  0.99709164  0.25039531     0.77300
C667        C  0.50376380  0.90828991  0.25467988     0.77200
C668        C  0.50250060  0.08613912  0.24199451     0.77100
O669        O  0.81936847  0.00688256  0.48057060    -0.72000
O670        O  0.67487358  0.00789081  0.47974598    -0.72200
O671        O  0.74747421  0.07382967  0.48469807    -0.72100
O672        O  0.74822860  0.94117232  0.47568046    -0.72100
O673        O  0.75195170  0.93161766  0.02307376    -0.72100
O674        O  0.75084643  0.06430170  0.03307036    -0.72100
O675        O  0.67944712  0.99800378  0.02783034    -0.72000
O676        O  0.82463862  0.99771643  0.02814920    -0.72200
V677        V  0.74728247  0.00732790  0.48118146     1.35200
V678        V  0.75190553  0.99810911  0.02708467     1.35200
C679        C  0.84378246  0.00375488  0.50549054     0.77200
C680        C  0.64962616  0.00293575  0.50430753     0.77300
C681        C  0.74506423  0.09242179  0.51103553     0.77200
C682        C  0.74903595  0.91462890  0.49898208     0.77100
O683        O  0.82591368  0.99196969  0.22546553    -0.72000
O684        O  0.68109467  0.99141638  0.22464489    -0.72200
O685        O  0.75207734  0.05793172  0.21885980    -0.72100
O686        O  0.75388565  0.92552362  0.23144419    -0.72100
O687        O  0.75451977  0.93632776  0.28093258    -0.72100
O688        O  0.75254733  0.06843398  0.26836890    -0.72100
O689        O  0.68037237  0.00200297  0.27415082    -0.72000
O690        O  0.82543430  0.00266898  0.27496372    -0.72200
V691        V  0.75338780  0.99190323  0.22606791     1.35200
V692        V  0.75303674  0.00216777  0.27363382     1.35200
C693        C  0.85025646  0.99724564  0.25030637     0.77200
C694        C  0.65613989  0.99674466  0.24923732     0.77300
C695        C  0.75198494  0.08563643  0.24153944     0.77200
C696        C  0.75479315  0.90852727  0.25834914     0.77100
O697        O  0.53058338  0.62833007  0.49726179    -0.72000
O698        O  0.52346717  0.75984713  0.99598062    -0.72200
O699        O  0.52981298  0.69475100  0.04081411    -0.72100
O700        O  0.52392049  0.69481359  0.45332551    -0.72100
O701        O  0.94799421  0.68823206  0.45244645    -0.72100
O702        O  0.94181564  0.68452500  0.04066550    -0.72100
O703        O  0.94065783  0.75751168  0.49355917    -0.72000
O704        O  0.94450854  0.62311765  0.99399066    -0.72200
V705        V  0.52316814  0.69489182  0.49691087     1.35200
V706        V  0.94818912  0.69115629  0.49594408     1.35200
C707        C  0.49123976  0.60283074  0.49598636     0.77200
C708        C  0.47551916  0.78127725  0.49953382     0.77300
C709        C  0.48910566  0.68876007  0.05597804     0.77200
C710        C  0.48222983  0.69454926  0.43868761     0.77100
O711        O  0.53400955  0.62417811  0.24802178    -0.72000
O712        O  0.52240315  0.75729264  0.24767489    -0.72200
O713        O  0.52652564  0.69109790  0.29141782    -0.72100
O714        O  0.52965399  0.69066027  0.20409819    -0.72100
O715        O  0.94633751  0.68208843  0.20296531    -0.72100
O716        O  0.94692159  0.68930391  0.29010632    -0.72100
O717        O  0.94114414  0.75232453  0.24370581    -0.72000
O718        O  0.95209950  0.61927340  0.24894041    -0.72200
V719        V  0.52657379  0.69065532  0.24778489     1.35200
V720        V  0.94818013  0.68586797  0.24648444     1.35200
C721        C  0.49471990  0.59864850  0.24931410     0.77200
C722        C  0.47929368  0.77712411  0.24480518     0.77300
C723        C  0.48449572  0.69112888  0.30579072     0.77200
C724        C  0.48902885  0.68534986  0.18879509     0.77100
O725        O  0.78187582  0.63016267  0.50482881    -0.72000
O726        O  0.77138353  0.76221154  0.00274863    -0.72200
O727        O  0.77811078  0.69707853  0.04764138    -0.72100
O728        O  0.77558471  0.69636788  0.46087917    -0.72100
O729        O  0.69266551  0.69521676  0.46108455    -0.72100
O730        O  0.69624692  0.68546469  0.04852609    -0.72100
O731        O  0.68699559  0.75724837  0.50809002    -0.72000
O732        O  0.69946364  0.62423686  0.00173336    -0.72200
V733        V  0.77414406  0.69667984  0.50450823     1.35200
V734        V  0.69477865  0.69098839  0.50472024     1.35200
C735        C  0.74266404  0.60461047  0.50291483     0.77200
C736        C  0.72612787  0.78288777  0.50702049     0.77300
C737        C  0.73771016  0.69046439  0.06300972     0.77200
C738        C  0.73406851  0.69587076  0.44604158     0.77100
O739        O  0.78377979  0.62378489  0.25407489    -0.72000
O740        O  0.77279790  0.75703363  0.25537443    -0.72200
O741        O  0.77737237  0.68948436  0.29843146    -0.72100
O742        O  0.77933317  0.69154437  0.21110671    -0.72100
O743        O  0.69721787  0.68141949  0.21055907    -0.72100
O744        O  0.69445140  0.68892062  0.29775613    -0.72100
O745        O  0.69033991  0.75165237  0.25104792    -0.72000
O746        O  0.70117758  0.61868002  0.25661118    -0.72200
V747        V  0.77676608  0.69031499  0.25478075     1.35200
V748        V  0.69735258  0.68527272  0.25410365     1.35200
C749        C  0.74431141  0.59844581  0.25525103     0.77200
C750        C  0.72972310  0.77693703  0.25234818     0.77300
C751        C  0.73556490  0.68982351  0.31303327     0.77200
C752        C  0.73861431  0.68624695  0.19590920     0.77100
O753        O  0.97055687  0.37696133  0.50205035    -0.72000
O754        O  0.98031177  0.24083678  0.00489379    -0.72200
O755        O  0.97530308  0.31061251  0.04627686    -0.72100
O756        O  0.97556466  0.31085401  0.45829113    -0.72100
O757        O  0.55461291  0.31488320  0.45717781    -0.72100
O758        O  0.56264802  0.30725978  0.04392366    -0.72100
O759        O  0.56027340  0.24624801  0.49912247    -0.72000
O760        O  0.55533588  0.37815272  0.00298075    -0.72200
V761        V  0.97495964  0.30748612  0.00270441     1.35200
V762        V  0.55909377  0.31147581  0.00030059     1.35200
C763        C  0.51217674  0.39842109  0.00152829     0.77200
C764        C  0.52627460  0.21993128  0.99948270     0.77300
C765        C  0.01741015  0.31075359  0.06050971     0.77200
C766        C  0.01729240  0.31104922  0.44366113     0.77100
O767        O  0.97233295  0.37101435  0.25266962    -0.72000
O768        O  0.98269604  0.23781779  0.25106332    -0.72200
O769        O  0.97722101  0.30313684  0.29563905    -0.72100
O770        O  0.97787731  0.30608591  0.20833262    -0.72100
O771        O  0.56340292  0.30535867  0.20784587    -0.72100
O772        O  0.55912930  0.31239904  0.29512517    -0.72100
O773        O  0.56677587  0.24234216  0.25438052    -0.72000
O774        O  0.55584664  0.37547371  0.24910932    -0.72200
V775        V  0.97908369  0.30454589  0.25194135     1.35200
V776        V  0.55979139  0.30878961  0.25153911     1.35200
C777        C  0.51263827  0.39565657  0.25037633     0.77200
C778        C  0.52746422  0.21710902  0.25210765     0.77300
C779        C  0.01808716  0.30886241  0.31065123     0.77200
C780        C  0.01946328  0.30581361  0.19350762     0.77100
O781        O  0.71858160  0.37680412  0.49985584    -0.72000
O782        O  0.73079362  0.24269632  0.00286514    -0.72200
O783        O  0.72699184  0.31157499  0.04488408    -0.72100
O784        O  0.72255482  0.30860168  0.45724715    -0.72100
O785        O  0.80479329  0.31791602  0.45684605    -0.72100
O786        O  0.80990615  0.30955132  0.04366590    -0.72100
O787        O  0.81020480  0.24783822  0.49785590    -0.72000
O788        O  0.80243402  0.38083201  0.00316551    -0.72200
V789        V  0.72466022  0.31025643  0.50092877     1.35200
V790        V  0.80415282  0.31434339  0.50041932     1.35200
C791        C  0.75832680  0.40170590  0.50137344     0.77200
C792        C  0.77044388  0.22309176  0.49963705     0.75700
C793        C  0.76900684  0.31032386  0.05920673     0.77200
C794        C  0.76350834  0.31328915  0.44211611     0.77100
O795        O  0.72081077  0.37034238  0.25215961    -0.72000
O796        O  0.73165312  0.23720496  0.24830028    -0.72200
O797        O  0.72502340  0.30102102  0.29392078    -0.72100
O798        O  0.72747866  0.30702924  0.20667026    -0.72100
O799        O  0.81040888  0.30533827  0.20749819    -0.72100
O800        O  0.80689119  0.31260589  0.29469184    -0.72100
O801        O  0.81389378  0.24231652  0.25404061    -0.72000
O802        O  0.80333613  0.37539475  0.24875805    -0.72200
V803        V  0.72776085  0.30391943  0.25025062     1.35200
V804        V  0.80712965  0.30875727  0.25115510     1.35200
C805        C  0.76025006  0.39565690  0.25068505     0.77200
C806        C  0.77457288  0.21712881  0.25162355     0.77300
C807        C  0.76545627  0.30739520  0.30923468     0.77200
C808        C  0.76937152  0.30653933  0.19215208     0.77100
C809        C  0.71873887  0.30209777  0.39173371    -0.13600
C810        C  0.76342318  0.31275538  0.40811150     0.08600
C811        C  0.80851850  0.32191483  0.39170376    -0.13600
C812        C  0.80904887  0.32016895  0.35962031    -0.13600
C813        C  0.76451827  0.30916974  0.34321783     0.08600
C814        C  0.71928578  0.30030185  0.35958629    -0.13600
H815        H  0.68351283  0.29459339  0.40377504     0.12600
H816        H  0.84350282  0.33039419  0.40366329     0.12600
H817        H  0.84439791  0.32751186  0.34765291     0.12600
H818        H  0.68443723  0.29162417  0.34756121     0.12600
C819        C  0.72503362  0.31969509  0.10981559    -0.13600
C820        C  0.76987459  0.30988237  0.09321119     0.08600
C821        C  0.81503482  0.29954365  0.10940679    -0.13600
C822        C  0.81509824  0.29851553  0.14160999    -0.13600
C823        C  0.76999411  0.30779663  0.15815092     0.08600
C824        C  0.72509771  0.31866495  0.14190257    -0.13600
H825        H  0.68989548  0.32853352  0.09798134     0.12600
H826        H  0.85008773  0.29165367  0.09717819     0.12600
H827        H  0.85021280  0.28991426  0.15355091     0.12600
H828        H  0.69002928  0.32680982  0.15403047     0.12600
C829        C  0.55933563  0.31889394  0.39231703    -0.13600
C830        C  0.01760389  0.31062463  0.40964633     0.08600
C831        C  0.97216327  0.30311679  0.39323212    -0.13600
C832        C  0.97229018  0.30261142  0.36109251    -0.13600
C833        C  0.01782430  0.30978390  0.34467821     0.08600
C834        C  0.56038605  0.31812350  0.36023730    -0.13600
H835        H  0.59401923  0.32744379  0.40456016     0.12600
H836        H  0.93650370  0.29729287  0.40523492     0.12600
H837        H  0.93675295  0.29640679  0.34910482     0.12600
H838        H  0.59580887  0.32613586  0.34855526     0.12600
C839        C  0.97330232  0.31726577  0.11134971    -0.13600
C840        C  0.01855244  0.31029456  0.09453327     0.08600
C841        C  0.56853063  0.30051610  0.10966540    -0.13600
C842        C  0.56873287  0.30005782  0.14188021    -0.13600
C843        C  0.01942179  0.30707868  0.15948534     0.08600
C844        C  0.97372857  0.31567141  0.14344594    -0.13600
H845        H  0.93749860  0.32413077  0.09968304     0.12600
H846        H  0.60424046  0.29585008  0.09746552     0.12600
H847        H  0.60457282  0.29503753  0.15385876     0.12600
H848        H  0.93827071  0.32150575  0.15572833     0.12600
C849        C  0.70518472  0.51852566  0.25927531    -0.13600
C850        C  0.74844014  0.54655143  0.25449077     0.08600
C851        C  0.79552345  0.52454198  0.24823767    -0.13600
C852        C  0.79933012  0.47556286  0.24682368    -0.13600
C853        C  0.75610323  0.44753429  0.25162771     0.08600
C854        C  0.70900039  0.46953423  0.25789143    -0.13600
H855        H  0.66842543  0.53444969  0.26424380     0.12600
H856        H  0.82933928  0.54525324  0.24410104     0.12600
H857        H  0.83605796  0.45964648  0.24179687     0.12600
H858        H  0.67516095  0.44882955  0.26200221     0.12600
C859        C  0.70358354  0.52514760  0.49722252    -0.13600
C860        C  0.74706197  0.55274633  0.50217298     0.08600
C861        C  0.79365667  0.52970891  0.00921214    -0.13600
C862        C  0.79770906  0.48070144  0.00895523    -0.13600
C863        C  0.75463241  0.45363566  0.50158009     0.08600
C864        C  0.70732372  0.47615693  0.49693512    -0.13600
H865        H  0.66661568  0.54142744  0.49347592     0.12600
H866        H  0.82705656  0.55013175  0.01487772     0.12600
H867        H  0.83410870  0.46448291  0.01443210     0.12600
H868        H  0.67315425  0.45588663  0.49294901     0.12600
C869        C  0.68886139  0.68755411  0.36341668    -0.13600
C870        C  0.73495453  0.69150708  0.34706085     0.08600
C871        C  0.78062085  0.69732813  0.36353288    -0.13600
C872        C  0.78022605  0.69916275  0.39564348    -0.13600
C873        C  0.73414748  0.69521497  0.41200948     0.08600
C874        C  0.68845794  0.68938304  0.39556607    -0.13600
H875        H  0.65312698  0.68271688  0.35136588     0.12600
H876        H  0.81672546  0.70065564  0.35159500     0.12600
H877        H  0.81604938  0.70366389  0.40765995     0.12600
H878        H  0.65248317  0.68575574  0.40756882     0.12600
C879        C  0.78361745  0.69806131  0.11336466    -0.13600
C880        C  0.73860434  0.68859258  0.09699600     0.08600
C881        C  0.69406144  0.67743008  0.11341698    -0.13600
C882        C  0.69430023  0.67626467  0.14550790    -0.13600
C883        C  0.73909560  0.68619663  0.16191423     0.08600
C884        C  0.78386417  0.69686194  0.14553382    -0.13600
H885        H  0.81850111  0.70683675  0.10133097     0.12600
H886        H  0.65892563  0.66954307  0.10145882     0.12600
H887        H  0.65933916  0.66759047  0.15748707     0.12600
H888        H  0.81892011  0.70481229  0.15757870     0.12600
C889        C  0.54708964  0.52472285  0.24560427    -0.13600
C890        C  0.49939235  0.54673178  0.25000462     0.08600
C891        C  0.95603898  0.51939462  0.25290557    -0.13600
C892        C  0.96005261  0.47039909  0.25363102    -0.13600
C893        C  0.50816691  0.44759472  0.25030400     0.08600
C894        C  0.55142187  0.47569628  0.24573127    -0.13600
H895        H  0.58103154  0.54541573  0.24173660     0.12600
H896        H  0.91901427  0.53559149  0.25652598     0.12600
H897        H  0.92599940  0.45000094  0.25777450     0.12600
H898        H  0.58856136  0.45978707  0.24197437     0.12600
C899        C  0.54229341  0.52877707  0.50324459    -0.13600
C900        C  0.49552014  0.55091164  0.49634135     0.08600
C901        C  0.94854471  0.52229374  0.99267020    -0.13600
C902        C  0.95291314  0.47327865  0.99441254    -0.13600
C903        C  0.50775755  0.45031313  0.00103206     0.08600
C904        C  0.54600096  0.47974965  0.50451375    -0.13600
H905        H  0.57588783  0.54940410  0.50808882     0.12600
H906        H  0.91130924  0.53794788  0.98874706     0.12600
H907        H  0.91897406  0.45224742  0.99160024     0.12600
H908        H  0.58243987  0.46373153  0.51016632     0.12600
C909        C  0.94416457  0.68338107  0.38757021    -0.13600
C910        C  0.48210499  0.69500821  0.40467594     0.08600
C911        C  0.52755443  0.70329672  0.38840161    -0.13600
C912        C  0.52815939  0.70229430  0.35630144    -0.13600
C913        C  0.48335620  0.69299173  0.33975575     0.08600
C914        C  0.94385915  0.68289517  0.35545949    -0.13600
H915        H  0.90884875  0.67660387  0.39970852     0.12600
H916        H  0.56268592  0.71058887  0.40048676     0.12600
H917        H  0.56375900  0.70892256  0.34440479     0.12600
H918        H  0.90841471  0.67565464  0.34363516     0.12600
C919        C  0.94088896  0.67544312  0.10575638    -0.13600
C920        C  0.48957630  0.68720877  0.08993757     0.08600
C921        C  0.53503698  0.69441256  0.10635751    -0.13600
C922        C  0.53509199  0.69329967  0.13850922    -0.13600
C923        C  0.48967968  0.68497579  0.15481713     0.08600
C924        C  0.94180141  0.67488253  0.13786975    -0.13600
H925        H  0.90581425  0.66642295  0.09406811     0.12600
H926        H  0.57045154  0.70131573  0.09436077     0.12600
H927        H  0.57052280  0.69950323  0.15059303     0.12600
H928        H  0.90739277  0.66546656  0.15019010     0.12600
C929        C  0.77872378  0.16565084  0.25404279    -0.16700
C930        C  0.75018780  0.13688018  0.23687940    -0.31800
H931        H  0.80647713  0.15098682  0.27005197     0.12400
H932        H  0.72592099  0.15112372  0.21880851     0.12900
C933        C  0.75746688  0.85747301  0.26337605    -0.16700
C934        C  0.72538688  0.82830394  0.24908641    -0.31800
H935        H  0.78514224  0.84376188  0.27977455     0.12400
H936        H  0.69471446  0.84254542  0.23494949     0.12900
C937        C  0.77397713  0.17158471  0.49784359    -0.16700
C938        C  0.74324909  0.14379041  0.51440990    -0.31800
H939        H  0.80316798  0.15612021  0.48314414     0.12400
H940        H  0.72432059  0.15698617  0.03169156     0.12900
C941        C  0.72119124  0.83424275  0.50998740    -0.16700
C942        C  0.75276763  0.86342589  0.49519607    -0.31800
H943        H  0.69568212  0.84868376  0.02397063     0.12400
H944        H  0.78060665  0.84954709  0.47896777     0.12900
C945        C  0.50054599  0.13746144  0.23824329    -0.16700
C946        C  0.53160705  0.16560025  0.25418711    -0.31800
H947        H  0.47411847  0.15231615  0.22152273     0.12400
H948        H  0.05942571  0.15121456  0.27100428     0.12900
C949        C  0.47509318  0.82860501  0.24230769    -0.16700
C950        C  0.50572398  0.85694485  0.25843042    -0.31800
H951        H  0.94705995  0.84423282  0.22820096     0.12400
H952        H  0.53175426  0.84220230  0.27541897     0.12900
C953        C  0.53006914  0.16845724  0.99719616    -0.16700
C954        C  0.49834910  0.14014935  0.01268379    -0.31800
H955        H  0.05628078  0.15633136  0.51981357     0.12400
H956        H  0.47158363  0.15472807  0.02929406     0.12900
C957        C  0.50936659  0.86048992  0.98909161    -0.16700
C958        C  0.47074620  0.83263715  0.50267587    -0.31800
H959        H  0.02560218  0.84820435  0.52929106     0.12400
H960        H  0.44372352  0.84540410  0.01507794     0.12900
O961        O  0.00257617  0.94049113  0.97086947    -0.72000
O962        O  0.50216499  0.07137121  0.98183704    -0.72200
O963        O  0.57572541  0.00617955  0.97725103    -0.72100
O964        O  0.92928803  0.00677475  0.97790881    -0.72100
O965        O  0.92600427  0.00677492  0.52895978    -0.72100
O966        O  0.56780196  0.99724646  0.52779098    -0.72100
O967        O  0.99796149  0.07344188  0.52220323    -0.72000
O968        O  0.49680240  0.93016826  0.52013483    -0.72200
V969        V  0.50341094  0.00503313  0.97727308     1.35200
V970        V  0.49525786  0.99653533  0.52525429     1.35200
C971        C  0.49959385  0.91315034  0.49333361     0.77200
C972        C  0.49431353  0.09021198  0.50948243     0.77300
C973        C  0.59945727  0.00167520  0.00235663     0.77200
C974        C  0.90521013  0.00149320  0.00289844     0.77100
O975        O  0.57135046  0.00169644  0.77357782    -0.72000
O976        O  0.92638014  0.00381263  0.77388051    -0.72200
O977        O  0.50039593  0.93502672  0.77856769    -0.72100
O978        O  0.99837906  0.07033626  0.76882353    -0.72100
O979        O  0.49737207  0.05913695  0.71874958    -0.72100
O980        O  0.99854296  0.92922373  0.72906590    -0.72100
O981        O  0.92617939  0.99559202  0.72417252    -0.72000
O982        O  0.57142801  0.99317502  0.72389682    -0.72200
V983        V  0.49904127  0.00125430  0.77253317     1.35200
V984        V  0.99848985  0.99572422  0.72508388     1.35200
C985        C  0.59597799  0.99771679  0.74875541     0.77200
C986        C  0.90171630  0.99982128  0.74904576     0.77300
C987        C  0.50049523  0.90819321  0.75545816     0.77200
C988        C  0.49775041  0.08589588  0.74188053     0.77100
O989        O  0.82489468  0.00698955  0.97849709    -0.72000
O990        O  0.68026330  0.00658385  0.97812606    -0.72200
O991        O  0.75222478  0.07315523  0.98339638    -0.72100
O992        O  0.75407234  0.94046060  0.97340611    -0.72100
O993        O  0.74802232  0.93305239  0.52542459    -0.72100
O994        O  0.74343771  0.06597514  0.53439147    -0.72100
O995        O  0.67357645  0.99816055  0.52935319    -0.72000
O996        O  0.81899605  0.00096600  0.53043307    -0.72200
V997        V  0.75269894  0.00664595  0.97934521     1.35200
V998        V  0.74613687  0.99968446  0.52897651     1.35200
C999        C  0.84934939  0.00210540  0.00328566     0.77200
C1000       C  0.65528481  0.00217658  0.00283666     0.77300
C1001       C  0.75112383  0.09123560  0.00993126     0.77200
C1002       C  0.75328845  0.91354475  0.99654915     0.77100
O1003       O  0.82134482  0.99499918  0.72424601    -0.72000
O1004       O  0.67652897  0.99387929  0.72411082    -0.72200
O1005       O  0.74727587  0.06088336  0.71841584    -0.72100
O1006       O  0.74967015  0.92821258  0.73020541    -0.72100
O1007       O  0.75091676  0.93845625  0.77974282    -0.72100
O1008       O  0.74820272  0.07066148  0.76798524    -0.72100
O1009       O  0.67635187  0.00373413  0.77368415    -0.72000
O1010       O  0.82133221  0.00513265  0.77379973    -0.72200
V1011       V  0.74883127  0.99470210  0.72519707     1.35200
V1012       V  0.74899429  0.00433449  0.77282158     1.35200
C1013       C  0.84590119  0.00002962  0.74902649     0.77200
C1014       C  0.65185394  0.99846272  0.74887046     0.77300
C1015       C  0.74754257  0.08826593  0.74127659     0.77200
C1016       C  0.75104725  0.91092377  0.75703131     0.77100
O1017       O  0.53465770  0.62661152  0.99852255    -0.72000
O1018       O  0.51875939  0.76163410  0.49661268    -0.72200
O1019       O  0.52570979  0.69521226  0.54053829    -0.72100
O1020       O  0.52831601  0.69127585  0.95349630    -0.72100
O1021       O  0.93762091  0.69487874  0.95356019    -0.72100
O1022       O  0.94511042  0.69364863  0.53954244    -0.72100
O1023       O  0.93513807  0.75629345  0.00093449    -0.72000
O1024       O  0.95252354  0.62463887  0.49789872    -0.72200
V1025       V  0.52752232  0.69307540  0.99715472     1.35200
V1026       V  0.94126457  0.68983124  0.99716817     1.35200
C1027       C  0.49526845  0.60121411  0.99729593     0.77200
C1028       C  0.48039444  0.77975184  0.99911249     0.77300
C1029       C  0.48509273  0.68925460  0.55576788     0.77200
C1030       C  0.48655530  0.69143101  0.93887465     0.77100
O1031       O  0.53325448  0.62331471  0.74638019    -0.72000
O1032       O  0.52212577  0.75658931  0.74845869    -0.72200
O1033       O  0.52734551  0.68814174  0.79101696    -0.72100
O1034       O  0.52804245  0.69160323  0.70367796    -0.72100
O1035       O  0.93984997  0.68510019  0.70235728    -0.72100
O1036       O  0.93623779  0.69291226  0.78968190    -0.72100
O1037       O  0.93349943  0.75546435  0.74293203    -0.72000
O1038       O  0.94263087  0.62222456  0.74873291    -0.72200
V1039       V  0.52617933  0.68982698  0.74738363     1.35200
V1040       V  0.93954554  0.68896123  0.74599138     1.35200
C1041       C  0.49388818  0.59801710  0.74863023     0.77200
C1042       C  0.47907178  0.77648384  0.74524886     0.77300
C1043       C  0.48571618  0.68908039  0.80580275     0.77200
C1044       C  0.48722887  0.68549367  0.68868506     0.77100
O1045       O  0.78200936  0.62909028  0.00504462    -0.72000
O1046       O  0.76945585  0.76338301  0.50417337    -0.72200
O1047       O  0.77584221  0.69713676  0.54818251    -0.72100
O1048       O  0.77511230  0.69383527  0.96030387    -0.72100
O1049       O  0.69219742  0.69574083  0.96147399    -0.72100
O1050       O  0.69384316  0.68620219  0.54821914    -0.72100
O1051       O  0.68916968  0.75717275  0.00875073    -0.72000
O1052       O  0.69937317  0.62457676  0.50177325    -0.72200
V1053       V  0.77513436  0.69552354  0.00394360     1.35200
V1054       V  0.69576484  0.69079284  0.00504982     1.35200
C1055       C  0.74257266  0.60389020  0.00310591     0.77200
C1056       C  0.72857311  0.78231632  0.00641539     0.77300
C1057       C  0.73492530  0.69099347  0.56310857     0.77200
C1058       C  0.73309684  0.69486170  0.94595111     0.77100
O1059       O  0.77840460  0.62613372  0.75326439    -0.72000
O1060       O  0.76775120  0.75934558  0.75573989    -0.72200
O1061       O  0.77243248  0.69064048  0.79820966    -0.72100
O1062       O  0.77393069  0.69473917  0.71104184    -0.72100
O1063       O  0.69199255  0.68345291  0.71051865    -0.72100
O1064       O  0.68949513  0.69202258  0.79776609    -0.72100
O1065       O  0.68539879  0.75415673  0.75068204    -0.72000
O1066       O  0.69589012  0.62117875  0.75684122    -0.72200
V1067       V  0.77158816  0.69261688  0.75462305     1.35200
V1068       V  0.69219459  0.68780135  0.75407086     1.35200
C1069       C  0.73892407  0.60086441  0.75481061     0.77200
C1070       C  0.72481392  0.77936142  0.75225947     0.77300
C1071       C  0.73076517  0.69164493  0.81293194     0.77200
C1072       C  0.73331561  0.68884156  0.69587149     0.77100
O1073       O  0.96659704  0.37386543  0.00046157    -0.72000
O1074       O  0.97890256  0.24364465  0.50152990    -0.72200
O1075       O  0.97367942  0.30943358  0.54549888    -0.72100
O1076       O  0.97148846  0.30420658  0.95911584    -0.72100
O1077       O  0.55866695  0.31579216  0.95675395    -0.72100
O1078       O  0.55592889  0.31091785  0.54432232    -0.72100
O1079       O  0.56572707  0.24502809  0.99719958    -0.72000
O1080       O  0.55001512  0.37951896  0.50186834    -0.72200
V1081       V  0.97627793  0.31036161  0.50187265     1.35200
V1082       V  0.55362273  0.31279981  0.50070361     1.35200
C1083       C  0.50695862  0.39986577  0.50013556     0.77200
C1084       C  0.52069794  0.22122053  0.50082204     0.77300
C1085       C  0.01455944  0.31288206  0.56077767     0.77200
C1086       C  0.01162147  0.31039946  0.94345158     0.77100
O1087       O  0.96249258  0.37312580  0.75210589    -0.72000
O1088       O  0.97399378  0.23986061  0.75121034    -0.72200
O1089       O  0.96734395  0.30563333  0.79549738    -0.72100
O1090       O  0.96928806  0.30721808  0.70805876    -0.72100
O1091       O  0.55801781  0.30530184  0.70725407    -0.72100
O1092       O  0.55705322  0.31145726  0.79449333    -0.72100
O1093       O  0.56261273  0.24161165  0.75344524    -0.72000
O1094       O  0.55258026  0.37470072  0.74871648    -0.72200
V1095       V  0.96981024  0.30657357  0.75173693     1.35200
V1096       V  0.55601224  0.30810070  0.75092385     1.35200
C1097       C  0.50956045  0.39514253  0.74998576     0.77200
C1098       C  0.52299660  0.21663074  0.75210545     0.77300
C1099       C  0.00822823  0.31079822  0.81059784     0.77200
C1100       C  0.01119548  0.30793513  0.69356003     0.77100
O1101       O  0.71989694  0.37587175  0.99985657    -0.72000
O1102       O  0.72763213  0.24357860  0.50215912    -0.72200
O1103       O  0.72362475  0.31149223  0.54452576    -0.72100
O1104       O  0.72368256  0.30719855  0.95766610    -0.72100
O1105       O  0.80546854  0.31921822  0.95651472    -0.72100
O1106       O  0.80657091  0.31092058  0.54408039    -0.72100
O1107       O  0.81293046  0.24792190  0.99654715    -0.72000
O1108       O  0.80121863  0.38100704  0.50264831    -0.72200
V1109       V  0.72685493  0.30941148  0.00130328     1.35200
V1110       V  0.80620043  0.31427698  0.00005030     1.35200
C1111       C  0.75931737  0.40113287  0.00171357     0.77200
C1112       C  0.77365272  0.22268689  0.99912736     0.75700
C1113       C  0.76527062  0.31068806  0.55922930     0.77200
C1114       C  0.76396144  0.31359302  0.94216067     0.77100
O1115       O  0.71616749  0.37260048  0.75157169    -0.72000
O1116       O  0.72763597  0.23948482  0.74928962    -0.72200
O1117       O  0.72137978  0.30448699  0.79420645    -0.72100
O1118       O  0.72268216  0.30768945  0.70682915    -0.72100
O1119       O  0.80562182  0.30778736  0.70737733    -0.72100
O1120       O  0.80334214  0.31559024  0.79446398    -0.72100
O1121       O  0.81003389  0.24492907  0.75397222    -0.72000
O1122       O  0.79868115  0.37805261  0.74835383    -0.72200
V1123       V  0.72350940  0.30615332  0.75047191     1.35200
V1124       V  0.80288827  0.31142146  0.75096885     1.35200
C1125       C  0.75544276  0.39810780  0.75001024     0.77200
C1126       C  0.77072088  0.21957694  0.75207447     0.77300
C1127       C  0.76212007  0.31074552  0.80925755     0.77200
C1128       C  0.76445187  0.30755864  0.69217383     0.77100
C1129       C  0.71817077  0.30202673  0.89216285    -0.13600
C1130       C  0.76280333  0.31407517  0.90816357     0.08600
C1131       C  0.80675097  0.32585240  0.89136814    -0.13600
C1132       C  0.80629861  0.32505703  0.85926517    -0.13600
C1133       C  0.76190715  0.31242944  0.84324089     0.08600
C1134       C  0.71772739  0.30121751  0.85999813    -0.13600
H1135       H  0.68381928  0.29256182  0.90450740     0.12600
H1136       H  0.84159568  0.33562472  0.90303809     0.12600
H1137       H  0.84078278  0.33433523  0.84698132     0.12600
H1138       H  0.68304697  0.29119047  0.84825972     0.12600
C1139       C  0.71954377  0.30339014  0.60951235    -0.13600
C1140       C  0.76541213  0.30939531  0.59322885     0.08600
C1141       C  0.81115423  0.31421013  0.60974231    -0.13600
C1142       C  0.81094924  0.31331788  0.64190549    -0.13600
C1143       C  0.76501013  0.30753837  0.65816639     0.08600
C1144       C  0.71935705  0.30243802  0.64162562    -0.13600
H1145       H  0.68375636  0.29922200  0.59741803     0.12600
H1146       H  0.84697008  0.31923632  0.59779701     0.12600
H1147       H  0.84660416  0.31777581  0.65406283     0.12600
H1148       H  0.68345222  0.29759392  0.65352170     0.12600
C1149       C  0.56094794  0.32023231  0.89160025    -0.13600
C1150       C  0.01019995  0.31061700  0.90947844     0.08600
C1151       C  0.96451132  0.30194592  0.89356990    -0.13600
C1152       C  0.96359780  0.30222209  0.86139290    -0.13600
C1153       C  0.00836125  0.31115142  0.84458280     0.08600
C1154       C  0.56067086  0.31925353  0.85949624    -0.13600
H1155       H  0.59614957  0.32864630  0.90332710     0.12600
H1156       H  0.92955190  0.29473788  0.90597908     0.12600
H1157       H  0.92801779  0.29509968  0.84969112     0.12600
H1158       H  0.59564123  0.32704459  0.84726131     0.12600
C1159       C  0.96882707  0.29990244  0.61057008    -0.13600
C1160       C  0.01375343  0.31172597  0.59474865     0.08600
C1161       C  0.56009112  0.31937737  0.60972892    -0.13600
C1162       C  0.56067399  0.31774872  0.64187009    -0.13600
C1163       C  0.01226547  0.30847747  0.65960377     0.08600
C1164       C  0.96808170  0.29833982  0.64268238    -0.13600
H1165       H  0.93439097  0.29137650  0.59810313     0.12600
H1166       H  0.59455804  0.32919844  0.59762626     0.12600
H1167       H  0.59548139  0.32656977  0.65387781     0.12600
H1168       H  0.93308331  0.28878088  0.65428652     0.12600
C1169       C  0.70025047  0.52080258  0.75958762    -0.13600
C1170       C  0.74300093  0.54898360  0.75368773     0.08600
C1171       C  0.78958310  0.52715848  0.74597769    -0.13600
C1172       C  0.79353095  0.47819508  0.74450113    -0.13600
C1173       C  0.75092958  0.44998437  0.75065279     0.08600
C1174       C  0.70418944  0.47180830  0.75809946    -0.13600
H1175       H  0.66385178  0.53660252  0.76559639     0.12600
H1176       H  0.82285470  0.54802112  0.74074611     0.12600
H1177       H  0.82985217  0.46241807  0.73835268     0.12600
H1178       H  0.67079942  0.45096962  0.76318113     0.12600
C1179       C  0.70421818  0.52434455  0.99570485    -0.13600
C1180       C  0.74685673  0.55203702  0.00260946     0.08600
C1181       C  0.79446440  0.53027716  0.50667701    -0.13600
C1182       C  0.79821069  0.48120706  0.50638490    -0.13600
C1183       C  0.75505643  0.45300066  0.00207540     0.08600
C1184       C  0.70827338  0.47533322  0.99544302    -0.13600
H1185       H  0.66781412  0.54057859  0.99025683     0.12600
H1186       H  0.82857230  0.55061999  0.51069614     0.12600
H1187       H  0.83512931  0.46484779  0.51016857     0.12600
H1188       H  0.67487708  0.45490389  0.98979068     0.12600
C1189       C  0.68585231  0.70211910  0.86356337    -0.13600
C1190       C  0.73076073  0.69232486  0.84696795     0.08600
C1191       C  0.77619288  0.68338597  0.86320446    -0.13600
C1192       C  0.77682840  0.68438923  0.89530360    -0.13600
C1193       C  0.73205944  0.69436244  0.91193411     0.08600
C1194       C  0.68649108  0.70311624  0.89576093    -0.13600
H1195       H  0.65042323  0.70956589  0.85165216     0.12600
H1196       H  0.81126287  0.67520323  0.85108558     0.12600
H1197       H  0.81232447  0.67684068  0.90713999     0.12600
H1198       H  0.65149907  0.71115774  0.90800208     0.12600
C1199       C  0.77909231  0.70108004  0.61367215    -0.13600
C1200       C  0.73491116  0.68967771  0.59706373     0.08600
C1201       C  0.69041469  0.67746849  0.61320472    -0.13600
C1202       C  0.69001310  0.67690137  0.64531167    -0.13600
C1203       C  0.73407205  0.68858648  0.66192351     0.08600
C1204       C  0.77866511  0.70056119  0.64580257    -0.13600
H1205       H  0.81380502  0.71094637  0.60184702     0.12600
H1206       H  0.65586936  0.66827082  0.60102090     0.12600
H1207       H  0.65520655  0.66725742  0.65713451     0.12600
H1208       H  0.81305424  0.71006187  0.65803302     0.12600
C1209       C  0.54503588  0.52364437  0.74327375    -0.13600
C1210       C  0.49806400  0.54612171  0.74917258     0.08600
C1211       C  0.94616128  0.52194870  0.75338233    -0.13600
C1212       C  0.95010316  0.47289727  0.75411153    -0.13600
C1213       C  0.50565966  0.44702703  0.74968163     0.08600
C1214       C  0.54879236  0.47460003  0.74352258    -0.13600
H1215       H  0.57881665  0.54396716  0.73819723     0.12600
H1216       H  0.90922570  0.53823771  0.75704590     0.12600
H1217       H  0.91606339  0.45249526  0.75828145     0.12600
H1218       H  0.58536097  0.45826003  0.73862958     0.12600
C1219       C  0.54657591  0.52746935  0.00511177    -0.13600
C1220       C  0.49955701  0.54933809  0.99839134     0.08600
C1221       C  0.95603754  0.52504550  0.49549308    -0.13600
C1222       C  0.95956330  0.47606999  0.49640873    -0.13600
C1223       C  0.50299213  0.45179373  0.49892583     0.08600
C1224       C  0.55065227  0.47847357  0.00639904    -0.13600
H1225       H  0.58016893  0.54828311  0.00960506     0.12600
H1226       H  0.91886335  0.54125174  0.49235137     0.12600
H1227       H  0.92505682  0.45573305  0.49391066     0.12600
H1228       H  0.58732755  0.46264042  0.01170102     0.12600
C1229       C  0.93219309  0.70350970  0.88773476    -0.13600
C1230       C  0.48604809  0.69094426  0.90483183     0.08600
C1231       C  0.53138116  0.68265820  0.88833375    -0.13600
C1232       C  0.53113493  0.68197018  0.85620634    -0.13600
C1233       C  0.48557858  0.68960965  0.83983830     0.08600
C1234       C  0.93182449  0.70276455  0.85552126    -0.13600
H1235       H  0.89705846  0.71128226  0.89989781     0.12600
H1236       H  0.56700808  0.67622538  0.90027225     0.12600
H1237       H  0.56658321  0.67504549  0.84415079     0.12600
H1238       H  0.89644823  0.71004682  0.84349869     0.12600
C1239       C  0.93859693  0.68731236  0.60471742    -0.13600
C1240       C  0.48603723  0.68745102  0.58974599     0.08600
C1241       C  0.53132521  0.69652494  0.60594618    -0.13600
C1242       C  0.53190354  0.69546909  0.63809672    -0.13600
C1243       C  0.48721861  0.68528519  0.65467124     0.08600
C1244       C  0.93750905  0.68580629  0.63684471    -0.13600
H1245       H  0.90321066  0.68309716  0.59220163     0.12600
H1246       H  0.56621133  0.70489873  0.59378527     0.12600
H1247       H  0.56717788  0.70315575  0.64997282     0.12600
H1248       H  0.90128291  0.68066663  0.64832961     0.12600
C1249       C  0.77494269  0.16805459  0.75422275    -0.16700
C1250       C  0.74607514  0.13960449  0.73698058    -0.31800
H1251       H  0.80283625  0.15312899  0.77003756     0.12400
H1252       H  0.72168290  0.15422486  0.71909776     0.12900
C1253       C  0.75412412  0.85986450  0.76189350    -0.16700
C1254       C  0.72063558  0.83074033  0.74880236    -0.31800
H1255       H  0.78311861  0.84616162  0.77744653     0.12400
H1256       H  0.68893125  0.84503618  0.73553558     0.12900
C1257       C  0.77777132  0.17122145  0.99670542    -0.16700
C1258       C  0.74892570  0.14256123  0.01386235    -0.31800
H1259       H  0.80591381  0.15651416  0.98097859     0.12400
H1260       H  0.71741449  0.15895208  0.53133051     0.12900
C1261       C  0.72472890  0.83379796  0.00891980    -0.16700
C1262       C  0.75515748  0.86224582  0.99262405    -0.31800
H1263       H  0.69021072  0.84841633  0.52389817     0.12400
H1264       H  0.78084487  0.84767061  0.97540759     0.12900
C1265       C  0.49599993  0.13716981  0.73799639    -0.16700
C1266       C  0.52688131  0.16516311  0.75416467    -0.31800
H1267       H  0.46993669  0.15209589  0.72109525     0.12400
H1268       H  0.04882202  0.15418290  0.77288574     0.12900
C1269       C  0.47465308  0.82792765  0.74251558    -0.16700
C1270       C  0.50329433  0.85685464  0.75947404    -0.31800
H1271       H  0.94082204  0.84723800  0.72819982     0.12400
H1272       H  0.52810571  0.84263091  0.77728606     0.12900
C1273       C  0.52470421  0.16971465  0.49896366    -0.16700
C1274       C  0.49233105  0.14139186  0.51393070    -0.31800
H1275       H  0.05853159  0.15589045  0.98425323     0.12400
H1276       H  0.46470373  0.15591551  0.53004345     0.12900
C1277       C  0.50291726  0.86208101  0.48855288    -0.16700
C1278       C  0.47586563  0.83118839  0.00216962    -0.31800
H1279       H  0.03237281  0.84743249  0.97239702     0.12400
H1280       H  0.43956347  0.84664714  0.51649443     0.12900
loop_ 
_geom_bond_atom_site_label_1 
_geom_bond_atom_site_label_2 
_geom_bond_distance 
_geom_bond_site_symmetry_2 
_ccdc_geom_bond_type 
O1          V649   1.901   1_565  S
O1          C971   1.263       .  A
O2            V9   1.898   1_545  S
O2          C332   1.262       .  A
O3            V9   1.905   1_445  S
O3           C13   1.264       .  A
O4          V649   1.904       .  S
O4           C14   1.265       .  A
O5          V650   1.894       .  S
O5          C334   1.262   1_554  A
O6           V10   1.901       .  S
O6          C333   1.265   1_565  A
O7          V650   1.903   1_545  S
O7          C652   1.264       .  A
O8           V10   1.903       .  S
O8           C11   1.265   1_554  A
V9          O641   1.900       .  S
V9          O644   1.892       .  S
V9          V330   2.089   1_565  T
V10         O645   1.896   1_455  S
V10         O647   1.903   1_565  S
V10         V329   2.089   1_564  T
C11         O961   1.263       .  A
C11         C317   1.471       .  S
C12         O322   1.265   1_554  A
C12         O647   1.264       .  A
C12         C314   1.471   1_455  S
C13         O326   1.263       .  A
C13          C40   1.464       .  S
C14         O325   1.262   1_545  A
C14          C39   1.464       .  S
O15          V23   1.896       .  S
O15          C25   1.262   1_545  A
O16         V663   1.899       .  S
O16          C26   1.264   1_545  A
O17          V23   1.902   1_565  S
O17          C27   1.264       .  A
O18         V663   1.901       .  S
O18         C668   1.264       .  A
O19         V664   1.901   1_545  S
O19          C28   1.263       .  A
O20          V24   1.901       .  S
O20         C667   1.264       .  A
O21          V24   1.897       .  S
O21          C26   1.263       .  A
O22         V664   1.900       .  S
O22          C25   1.265       .  A
V23         O656   1.903   1_455  S
V23         O658   1.902       .  S
V23         V664   2.090   1_545  T
V24         O659   1.901   1_565  S
V24         O662   1.903       .  S
V24         V663   2.090   1_565  T
C25          C54   1.463       .  S
C26          C53   1.463       .  S
C27         O660   1.264       .  A
C27         C310   1.470       .  S
C28         O658   1.265       .  A
C28         C305   1.471   1_455  S
O29          V37   1.900       .  S
O29          C39   1.263       .  A
O30          V37   1.909       .  S
O30          C40   1.266       .  A
O31          V37   1.902       .  S
O31          C41   1.265       .  A
O32          V37   1.902   1_565  S
O32          C42   1.263       .  A
O33          V38   1.901       .  S
O33         C362   1.264   1_554  A
O34          V38   1.903   1_545  S
O34         C361   1.264       .  A
O35          V38   1.892       .  S
O35         C360   1.261   1_565  A
O36          V38   1.899       .  S
O36         C359   1.264   1_554  A
V37         V358   2.089   1_545  T
V38         V357   2.089   1_564  T
C39         O356   1.264   1_545  A
C40         O355   1.261   1_545  A
C41         O354   1.263       .  A
C41         C298   1.469       .  S
C42         O353   1.265       .  A
C42         C302   1.472       .  S
O43          V51   1.903       .  S
O43          C53   1.265       .  A
O44          V51   1.895       .  S
O44          C54   1.262       .  A
O45          V51   1.902   1_545  S
O45          C55   1.263       .  A
O46          V51   1.901       .  S
O46          C56   1.264       .  A
O47          V52   1.901   1_565  S
O47          C56   1.263       .  A
O48          V52   1.901       .  S
O48          C55   1.265       .  A
O49          V52   1.901       .  S
O49          C54   1.265   1_545  A
O50          V52   1.893       .  S
O50          C53   1.262   1_545  A
V51          V52   2.090   1_565  T
C55         C290   1.471       .  S
C56         C293   1.469       .  S
O57          V65   1.903       .  S
O57          C67   1.266   1_455  A
O58         V385   1.900       .  S
O58         C388   1.264   1_455  A
O59         V385   1.899   1_554  S
O59          C69   1.265   1_455  A
O60          V65   1.905       .  S
O60          C70   1.267   1_455  A
O61          V66   1.904       .  S
O61         C710   1.266       .  A
O62         V386   1.895   1_554  S
O62         C709   1.264       .  A
O63          V66   1.902       .  S
O63         C708   1.263       .  A
O64         V386   1.901       .  S
O64        C1027   1.265       .  A
V65         O378   1.902       .  S
V65         O379   1.900       .  S
V65         V706   2.086   1_455  T
V66         O382   1.899       .  S
V66         O384   1.899       .  S
V66         V705   2.086       .  T
C67        O1024   1.265       .  A
C67         C260   1.480       .  S
C68         O378   1.265   1_655  A
C68         O703   1.263       .  A
C68         C318   1.470       .  S
C69         O702   1.265       .  A
C69         C280   1.477       .  S
C70         O701   1.263       .  A
C70         C270   1.479       .  S
O71          V79   1.901       .  S
O71          C81   1.265   1_455  A
O72          V79   1.899       .  S
O72          C82   1.264   1_455  A
O73          V79   1.898       .  S
O73          C83   1.264   1_455  A
O74          V79   1.900       .  S
O74          C84   1.265   1_455  A
O75          V80   1.895       .  S
O75         C724   1.264       .  A
O76          V80   1.900       .  S
O76         C723   1.265       .  A
O77          V80   1.904       .  S
O77         C722   1.264       .  A
O78          V80   1.903       .  S
O78         C721   1.266       .  A
V79         V720   2.086   1_455  T
V80         V719   2.086       .  T
C81         O718   1.265       .  A
C81         C250   1.481       .  S
C82         O717   1.264       .  A
C82         C309   1.471       .  S
C83         O716   1.266       .  A
C83         C273   1.478       .  S
C84         O715   1.264       .  A
C84         C283   1.477       .  S
O85          V93   1.903       .  S
O85          C95   1.266       .  A
O86         V413   1.899       .  S
O86         C416   1.264   1_556  A
O87         V413   1.899   1_554  S
O87          C97   1.265       .  A
O88          V93   1.898       .  S
O88          C98   1.265       .  A
O89          V94   1.901       .  S
O89          C98   1.265       .  A
O90         V414   1.897       .  S
O90          C97   1.265       .  A
O91          V94   1.901       .  S
O91          C96   1.263       .  A
O92         V414   1.904   1_556  S
O92         C415   1.266       .  A
V93         O406   1.902       .  S
V93         O407   1.901       .  S
V93          V94   2.085       .  T
V94         O410   1.896       .  S
V94         O412   1.898       .  S
C95         O412   1.265       .  A
C95         C220   1.480       .  S
C96         O406   1.265       .  A
C96         C301   1.471       .  S
C97         C240   1.478       .  S
C98         C233   1.479       .  S
O99         V107   1.901       .  S
O99         C109   1.265       .  A
O100        V107   1.899       .  S
O100        C110   1.264       .  A
O101        V107   1.899       .  S
O101        C111   1.265       .  A
O102        V107   1.902       .  S
O102        C112   1.266       .  A
O103        V108   1.895       .  S
O103        C112   1.264       .  A
O104        V108   1.900       .  S
O104        C111   1.265       .  A
O105        V108   1.902       .  S
O105        C110   1.264       .  A
O106        V108   1.901       .  S
O106        C109   1.265       .  A
V107        V108   2.086       .  T
C109        C210   1.481       .  S
C110        C294   1.472       .  S
C111        C230   1.479       .  S
C112        C243   1.478       .  S
O113        V441   1.902       .  S
O113       C1083   1.266       .  A
O114        V121   1.899       .  S
O114        C764   1.264   1_554  A
O115        V121   1.897       .  S
O115        C125   1.265       .  A
O116        V441   1.903       .  S
O116        C126   1.266       .  A
O117        V442   1.904       .  S
O117        C766   1.266       .  A
O118        V122   1.904       .  S
O118        C765   1.266       .  A
O119        V442   1.901       .  S
O119        C444   1.263       .  A
O120        V122   1.900       .  S
O120        C123   1.266       .  A
V121        O433   1.898       .  S
V121        O436   1.901   1_554  S
V121        V762   2.084       .  T
V122        O437   1.896   1_554  S
V122        O439   1.901   1_554  S
V122        V761   2.084   1_455  T
C123       O1073   1.266   1_455  A
C123        C263   1.482   1_554  S
C124        O754   1.265   1_455  A
C124        O439   1.263   1_554  A
C124        C313   1.473   1_554  S
C125        O758   1.265       .  A
C125        C200   1.479       .  S
C126        O757   1.264       .  A
C126        C190   1.478       .  S
O127        V135   1.901       .  S
O127        C777   1.265       .  A
O128        V135   1.900       .  S
O128        C778   1.265       .  A
O129        V135   1.899       .  S
O129        C139   1.265       .  A
O130        V135   1.894       .  S
O130        C140   1.264       .  A
O131        V136   1.903       .  S
O131        C780   1.266       .  A
O132        V136   1.899       .  S
O132        C779   1.265       .  A
O133        V136   1.902       .  S
O133        C138   1.264       .  A
O134        V136   1.901       .  S
O134        C137   1.266       .  A
V135        V776   2.084       .  T
V136        V775   2.085   1_455  T
C137        O767   1.265   1_455  A
C137        C253   1.480       .  S
C138        O768   1.265   1_455  A
C138        C306   1.472       .  S
C139        O772   1.265       .  A
C139        C193   1.478       .  S
C140        O771   1.266       .  A
C140        C203   1.479       .  S
O141        V149   1.899       .  S
O141        C151   1.265       .  A
O142        V469   1.902   1_554  S
O142        C472   1.265   1_554  A
O143        V469   1.897   1_554  S
O143        C153   1.265       .  A
O144        V149   1.899       .  S
O144        C154   1.265       .  A
O145        V150   1.897       .  S
O145        C154   1.265       .  A
O146        V470   1.901   1_554  S
O146        C153   1.265       .  A
O147        V150   1.903       .  S
O147        C152   1.264       .  A
O148        V470   1.902   1_554  S
O148        C471   1.266   1_554  A
V149        O462   1.899       .  S
V149        O463   1.897       .  S
V149        V150   2.085       .  T
V150        O466   1.901       .  S
V150        O468   1.901       .  S
C151        O468   1.265       .  A
C151        C223   1.480       .  S
C152        O462   1.264       .  A
C152        C297   1.471       .  S
C153        C180   1.478       .  S
C154        C170   1.477       .  S
O155        V163   1.899       .  S
O155        C165   1.265       .  A
O156        V163   1.902       .  S
O156        C166   1.265       .  A
O157        V163   1.898       .  S
O157        C167   1.265       .  A
O158        V163   1.896       .  S
O158        C168   1.264       .  A
O159        V164   1.903       .  S
O159        C168   1.266       .  A
O160        V164   1.897       .  S
O160        C167   1.265       .  A
O161        V164   1.903       .  S
O161        C166   1.264       .  A
O162        V164   1.903       .  S
O162        C165   1.266       .  A
V163        V164   2.084       .  T
C165        C213   1.481       .  S
C166        C289   1.473       .  S
C167        C173   1.477       .  S
C168        C183   1.479       .  S
C169        C170   1.405       .  A
C169        C174   1.397       .  A
C169        H175   1.082       .  S
C170        C171   1.405       .  A
C171        C172   1.397       .  A
C171        H176   1.083       .  S
C172        C173   1.405       .  A
C172        H177   1.083       .  S
C173        C174   1.405       .  A
C174        H178   1.082       .  S
C179        C180   1.404       .  A
C179        C184   1.396       .  A
C179        H185   1.082       .  S
C180        C181   1.405       .  A
C181        C182   1.399       .  A
C181        H186   1.082       .  S
C182        C183   1.405       .  A
C182        H187   1.082       .  S
C183        C184   1.405       .  A
C184        H188   1.082       .  S
C189        C194   1.398       .  A
C189        C830   1.404       .  A
C189        H195   1.082       .  S
C190        C191   1.405       .  A
C190        C829   1.405       .  A
C191        C192   1.399       .  A
C191        H196   1.083       .  S
C192        C193   1.406       .  A
C192        H197   1.083       .  S
C193        C834   1.404       .  A
C194        C833   1.406       .  A
C194        H198   1.082       .  S
C199        C200   1.404       .  A
C199        C204   1.395       .  A
C199        H205   1.082       .  S
C200        C841   1.406       .  A
C201        C202   1.400       .  A
C201        C840   1.405       .  A
C201        H206   1.082       .  S
C202        C843   1.405       .  A
C202        H207   1.082       .  S
C203        C204   1.404       .  A
C203        C842   1.405       .  A
C204        H208   1.082       .  S
C209        C210   1.405       .  A
C209        C214   1.398       .  A
C209        H215   1.082       .  S
C210        C211   1.406       .  A
C211        C212   1.399       .  A
C211        H216   1.082       .  S
C212        C213   1.405       .  A
C212        H217   1.082       .  S
C213        C214   1.405       .  A
C214        H218   1.083       .  S
C219        C220   1.405       .  A
C219        C224   1.397       .  A
C219        H225   1.082       .  S
C220        C541   1.405       .  A
C221        C222   1.399       .  A
C221        C540   1.406   1_554  A
C221        H226   1.083       .  S
C222        C543   1.405   1_554  A
C222        H227   1.082       .  S
C223        C224   1.405       .  A
C223        C542   1.406       .  A
C224        H228   1.083       .  S
C229        C230   1.405       .  A
C229        C234   1.399       .  A
C229        H235   1.081       .  S
C230        C231   1.405       .  A
C231        C232   1.397       .  A
C231        H236   1.082       .  S
C232        C233   1.405       .  A
C232        H237   1.082       .  S
C233        C234   1.404       .  A
C234        H238   1.083       .  S
C239        C240   1.406       .  A
C239        C244   1.398       .  A
C239        H245   1.083       .  S
C240        C241   1.405       .  A
C241        C242   1.396       .  A
C241        H246   1.083       .  S
C242        C243   1.405       .  A
C242        H247   1.083       .  S
C243        C244   1.405       .  A
C244        H248   1.083       .  S
C249        C250   1.405   1_455  A
C249        C254   1.399       .  A
C249        H255   1.083       .  S
C250        C891   1.405       .  A
C251        C252   1.399       .  A
C251        C890   1.405       .  A
C251        H256   1.082       .  S
C252        C893   1.406       .  A
C252        H257   1.083       .  S
C253        C254   1.405       .  A
C253        C892   1.405   1_455  A
C254        H258   1.082       .  S
C259        C260   1.405   1_455  A
C259        C264   1.400       .  A
C259        H265   1.083       .  S
C260       C1221   1.405       .  A
C261        C262   1.398       .  A
C261       C1220   1.405       .  A
C261        H266   1.083       .  S
C262        C903   1.406   1_556  A
C262        H267   1.083       .  S
C263        C902   1.406   1_455  A
C263        C584   1.405   1_556  A
C264        C583   1.406       .  A
C264        H268   1.082       .  S
C269        C274   1.399       .  A
C269        C910   1.405       .  A
C269        H275   1.082       .  S
C270        C271   1.404   1_655  A
C270        C909   1.406       .  A
C271        C272   1.399       .  A
C271        H276   1.083       .  S
C272        C273   1.406   1_455  A
C272        H277   1.081       .  S
C273        C914   1.404       .  A
C274        C913   1.405       .  A
C274        H278   1.082       .  S
C279        C284   1.395       .  A
C279        C920   1.405       .  A
C279        H285   1.083       .  S
C280        C281   1.405   1_655  A
C280        C919   1.405       .  A
C281        C282   1.397       .  A
C281        H286   1.083       .  S
C282        C283   1.405   1_455  A
C282        H287   1.083       .  S
C283        C924   1.405       .  A
C284        C923   1.405       .  A
C284        H288   1.083       .  S
C289        C290   1.341       .  D
C289        H291   1.087       .  S
C290        H292   1.087       .  S
C293        C294   1.340       .  D
C293        H295   1.087       .  S
C294        H296   1.087       .  S
C297        C298   1.340       .  D
C297        H299   1.087       .  S
C298        H620   1.087       .  S
H300        C618   1.087       .  S
C301        C302   1.340       .  D
C301        H623   1.087       .  S
C302        H304   1.087       .  S
H303        C621   1.087       .  S
C305        C306   1.341   1_655  D
C305        H307   1.087       .  S
C306        H948   1.087       .  S
H308        C946   1.087       .  S
C309        C310   1.341   1_655  D
C309        H951   1.087       .  S
C310        H312   1.087       .  S
H311        C949   1.087       .  S
C313        C314   1.340   1_456  D
C313       H1275   1.087       .  S
C314        H316   1.087       .  S
H315       C1273   1.087       .  S
C317        C638   1.341   1_456  D
C317       H1279   1.087       .  S
C318        C637   1.340   1_655  D
C318        H640   1.087       .  S
H319       C1277   1.087       .  S
H320        C638   1.087       .  S
O321        V969   1.901   1_565  S
O321        C651   1.263       .  A
O322        V329   1.901       .  S
O323        V329   1.895       .  S
O323        C333   1.262   1_556  A
O324        V969   1.904       .  S
O324        C334   1.265   1_545  A
O325        V970   1.893       .  S
O326        V330   1.892   1_455  S
O327        V970   1.904   1_545  S
O327        C972   1.264       .  A
O328        V330   1.901   1_465  S
O328        C331   1.263   1_455  A
V329        O961   1.902   1_545  S
V329        O964   1.899   1_455  S
V330        O965   1.906       .  S
V330        O967   1.903       .  S
C331        O641   1.265       .  A
C331        C637   1.471   1_655  S
C332        O967   1.265       .  A
C332        C634   1.469       .  S
C333        C360   1.463       .  S
C334        C359   1.465       .  S
O335        V343   1.895   1_455  S
O335        C345   1.262   1_545  A
O336        V983   1.901       .  S
O336        C346   1.265   1_545  A
O337        V343   1.902   1_465  S
O337        C347   1.263   1_455  A
O338        V983   1.899       .  S
O338        C988   1.264       .  A
O339        V984   1.901   1_545  S
O339        C348   1.263       .  A
O340        V344   1.902       .  S
O340        C987   1.265       .  A
O341        V344   1.896       .  S
O341        C346   1.263       .  A
O342        V984   1.901   1_455  S
O342        C345   1.265       .  A
V343        O976   1.900       .  S
V343        O978   1.900       .  S
V343        V984   2.090   1_545  T
V344        O979   1.901   1_565  S
V344        O982   1.902       .  S
V344        V983   2.089   1_565  T
C345        C374   1.463   1_565  S
C346        C373   1.464       .  S
C347        O980   1.264       .  A
C347        C630   1.470   1_655  S
C348        O978   1.265       .  A
C348        C625   1.471       .  S
O349        V357   1.899       .  S
O349        C359   1.263   1_545  A
O350        V357   1.905       .  S
O350        C360   1.266   1_556  A
O351        V357   1.901       .  S
O351        C361   1.264   1_556  A
O352        V357   1.901   1_565  S
O352        C362   1.263       .  A
O353        V358   1.902       .  S
O354        V358   1.900   1_545  S
O355        V358   1.889       .  S
O356        V358   1.897       .  S
C361        C618   1.472       .  S
C362        C622   1.470       .  S
O363        V371   1.902       .  S
O363        C373   1.265       .  A
O364        V371   1.894       .  S
O364        C374   1.262   1_565  A
O365        V371   1.903   1_545  S
O365        C375   1.264       .  A
O366        V371   1.900       .  S
O366        C376   1.264       .  A
O367        V372   1.900   1_565  S
O367        C376   1.263       .  A
O368        V372   1.901       .  S
O368        C375   1.264       .  A
O369        V372   1.902       .  S
O369        C374   1.265       .  A
O370        V372   1.895       .  S
O370        C373   1.262   1_545  A
V371        V372   2.089   1_565  T
C375        C610   1.472       .  S
C376        C613   1.469       .  S
O377        V385   1.898       .  S
O377        C387   1.265   1_455  A
O379        C389   1.265   1_455  A
O380        V385   1.896       .  S
O380        C390   1.265   1_455  A
O381        V386   1.902       .  S
O381       C1030   1.265       .  A
O382       C1029   1.265       .  A
O383        V386   1.902   1_554  S
O383       C1028   1.264   1_554  A
O384        C707   1.265       .  A
V385       V1026   2.084   1_455  T
V386       V1025   2.085       .  T
C387        O704   1.266       .  A
C387        C580   1.482       .  S
C388       O1023   1.265   1_556  A
C388        C638   1.474   1_556  S
C389       O1022   1.265       .  A
C389        C600   1.479       .  S
C390       O1021   1.266       .  A
C390        C590   1.479       .  S
O391        V399   1.899       .  S
O391        C401   1.265   1_455  A
O392        V399   1.900       .  S
O392        C402   1.264   1_455  A
O393        V399   1.894       .  S
O393        C403   1.264   1_455  A
O394        V399   1.899       .  S
O394        C404   1.265   1_455  A
O395        V400   1.897       .  S
O395       C1044   1.265       .  A
O396        V400   1.903       .  S
O396       C1043   1.266       .  A
O397        V400   1.901       .  S
O397       C1042   1.263       .  A
O398        V400   1.900       .  S
O398       C1041   1.265       .  A
V399       V1040   2.084   1_455  T
V400       V1039   2.084       .  T
C401       O1038   1.266       .  A
C401        C570   1.482       .  S
C402       O1037   1.264       .  A
C402        C629   1.471       .  S
C403       O1036   1.266       .  A
C403        C593   1.479       .  S
C404       O1035   1.266       .  A
C404        C603   1.480       .  S
O405        V413   1.899   1_554  S
O405        C415   1.265   1_554  A
O407        C417   1.265       .  A
O408        V413   1.895       .  S
O408        C418   1.265       .  A
O409        V414   1.903   1_556  S
O409        C418   1.266       .  A
O410        C417   1.264       .  A
O411        V414   1.904       .  S
O411        C416   1.264       .  A
V413        V414   2.085   1_556  T
C415        C540   1.482       .  S
C416        C621   1.472       .  S
C417        C560   1.478       .  S
C418        C553   1.479       .  S
O419        V427   1.901       .  S
O419        C429   1.265       .  A
O420        V427   1.900       .  S
O420        C430   1.265       .  A
O421        V427   1.895       .  S
O421        C431   1.265       .  A
O422        V427   1.900       .  S
O422        C432   1.265       .  A
O423        V428   1.896       .  S
O423        C432   1.265       .  A
O424        V428   1.903       .  S
O424        C431   1.266       .  A
O425        V428   1.901       .  S
O425        C430   1.263       .  A
O426        V428   1.900       .  S
O426        C429   1.265       .  A
V427        V428   2.085       .  T
C429        C530   1.481       .  S
C430        C614   1.471       .  S
C431        C550   1.479       .  S
C432        C563   1.478       .  S
O433        C763   1.265       .  A
O434        V441   1.900       .  S
O434       C1084   1.264       .  A
O435        V441   1.900       .  S
O435        C445   1.265       .  A
O436        C446   1.265       .  A
O437       C1086   1.265       .  A
O438        V442   1.898       .  S
O438       C1085   1.265       .  A
O440        V442   1.900       .  S
O440        C443   1.265       .  A
V441       V1082   2.086       .  T
V442       V1081   2.086   1_455  T
C443        O753   1.266   1_455  A
C443        C583   1.480       .  S
C444       O1074   1.264   1_455  A
C444        C633   1.471       .  S
C445       O1078   1.264       .  A
C445        C520   1.478       .  S
C446       O1077   1.265       .  A
C446        C510   1.479       .  S
O447        V455   1.900       .  S
O447       C1097   1.265       .  A
O448        V455   1.899       .  S
O448       C1098   1.264       .  A
O449        V455   1.901       .  S
O449        C459   1.265       .  A
O450        V455   1.897       .  S
O450        C460   1.264       .  A
O451        V456   1.897       .  S
O451       C1100   1.264       .  A
O452        V456   1.892       .  S
O452       C1099   1.264       .  A
O453        V456   1.901       .  S
O453        C458   1.263       .  A
O454        V456   1.899       .  S
O454        C457   1.265       .  A
V455       V1096   2.086       .  T
V456       V1095   2.086   1_455  T
C457       O1087   1.266   1_455  A
C457        C573   1.481   1_455  S
C458       O1088   1.264   1_455  A
C458        C626   1.470       .  S
C459       O1092   1.265       .  A
C459        C513   1.479       .  S
C460       O1091   1.266       .  A
C460        C523   1.478       .  S
O461        V469   1.900       .  S
O461        C471   1.265       .  A
O463        C473   1.265       .  A
O464        V469   1.901       .  S
O464        C474   1.265       .  A
O465        V470   1.896       .  S
O465        C474   1.265       .  A
O466        C473   1.266       .  A
O467        V470   1.902       .  S
O467        C472   1.264       .  A
V469        V470   2.084       .  T
C471        C543   1.482       .  S
C472        C617   1.473       .  S
C473        C500   1.480       .  S
C474        C490   1.478       .  S
O475        V483   1.901       .  S
O475        C485   1.265       .  A
O476        V483   1.902       .  S
O476        C486   1.265       .  A
O477        V483   1.902       .  S
O477        C487   1.265       .  A
O478        V483   1.898       .  S
O478        C488   1.265       .  A
O479        V484   1.901       .  S
O479        C488   1.266       .  A
O480        V484   1.896       .  S
O480        C487   1.264       .  A
O481        V484   1.902       .  S
O481        C486   1.264       .  A
O482        V484   1.902       .  S
O482        C485   1.265       .  A
V483        V484   2.085       .  T
C485        C533   1.482       .  S
C486        C609   1.472       .  S
C487        C493   1.478       .  S
C488        C503   1.480       .  S
C489        C490   1.406       .  A
C489        C494   1.399       .  A
C489        H495   1.083       .  S
C490        C491   1.405       .  A
C491        C492   1.396       .  A
C491        H496   1.083       .  S
C492        C493   1.405       .  A
C492        H497   1.083       .  S
C493        C494   1.406       .  A
C494        H498   1.083       .  S
C499        C500   1.405       .  A
C499        C504   1.397       .  A
C499        H505   1.083       .  S
C500        C501   1.405       .  A
C501        C502   1.398       .  A
C501        H506   1.082       .  S
C502        C503   1.405       .  A
C502        H507   1.082       .  S
C503        C504   1.405       .  A
C504        H508   1.082       .  S
C509       C1150   1.404       .  A
C509        C514   1.395       .  A
C509        H515   1.083       .  S
C510       C1149   1.405       .  A
C510        C511   1.406       .  A
C511        C512   1.399       .  A
C511        H516   1.083       .  S
C512        C513   1.406       .  A
C512        H517   1.083       .  S
C513       C1154   1.405       .  A
C514       C1153   1.405       .  A
C514        H518   1.083       .  S
C519        C520   1.404       .  A
C519        C524   1.397       .  A
C519        H525   1.082       .  S
C520       C1161   1.405       .  A
C521       C1160   1.405       .  A
C521        C522   1.397       .  A
C521        H526   1.083       .  S
C522       C1163   1.405       .  A
C522        H527   1.083       .  S
C523       C1162   1.404       .  A
C523        C524   1.405       .  A
C524        H528   1.082       .  S
C529        C530   1.405       .  A
C529        C534   1.398       .  A
C529        H535   1.082       .  S
C530        C531   1.405       .  A
C531        C532   1.399       .  A
C531        H536   1.082       .  S
C532        C533   1.406       .  A
C532        H537   1.082       .  S
C533        C534   1.405       .  A
C534        H538   1.083       .  S
C539        C540   1.405       .  A
C539        C544   1.399       .  A
C539        H545   1.082       .  S
C541        C542   1.399       .  A
C541        H546   1.083       .  S
C542        H547   1.082       .  S
C543        C544   1.406       .  A
C544        H548   1.083       .  S
C549        C550   1.406       .  A
C549        C554   1.401       .  A
C549        H555   1.082       .  S
C550        C551   1.404       .  A
C551        C552   1.395       .  A
C551        H556   1.082       .  S
C552        C553   1.404       .  A
C552        H557   1.083       .  S
C553        C554   1.406       .  A
C554        H558   1.082       .  S
C559        C560   1.405       .  A
C559        C564   1.399       .  A
C559        H565   1.082       .  S
C560        C561   1.405       .  A
C561        C562   1.395       .  A
C561        H566   1.083       .  S
C562        C563   1.404       .  A
C562        H567   1.083       .  S
C563        C564   1.405       .  A
C564        H568   1.083       .  S
C569        C570   1.405   1_455  A
C569        C574   1.398       .  A
C569        H575   1.083       .  S
C570       C1211   1.405       .  A
C571       C1210   1.405       .  A
C571        C572   1.398       .  A
C571        H576   1.082       .  S
C572       C1213   1.405       .  A
C572        H577   1.083       .  S
C573       C1212   1.405       .  A
C573        C574   1.405   1_655  A
C574        H578   1.082       .  S
C579        C580   1.405   1_454  A
C579        C584   1.397       .  A
C579        H585   1.082       .  S
C580        C901   1.406       .  A
C581        C900   1.406       .  A
C581        C582   1.399       .  A
C581        H586   1.083       .  S
C582       C1223   1.405       .  A
C582        H587   1.083       .  S
C583       C1222   1.404   1_455  A
C584        H588   1.082       .  S
C589       C1230   1.406       .  A
C589        C594   1.400       .  A
C589        H595   1.083       .  S
C590       C1229   1.406       .  A
C590        C591   1.404   1_655  A
C591        C592   1.395       .  A
C591        H596   1.082       .  S
C592        C593   1.404   1_455  A
C592        H597   1.083       .  S
C593       C1234   1.405       .  A
C594       C1233   1.405       .  A
C594        H598   1.082       .  S
C599       C1240   1.404       .  A
C599        C604   1.397       .  A
C599        H605   1.083       .  S
C600       C1239   1.405       .  A
C600        C601   1.405   1_655  A
C601        C602   1.398       .  A
C601        H606   1.083       .  S
C602        C603   1.406   1_455  A
C602        H607   1.083       .  S
C603       C1244   1.405       .  A
C604       C1243   1.405       .  A
C604        H608   1.083       .  S
C609        C610   1.341       .  D
C609        H611   1.087       .  S
C610        H612   1.087       .  S
C613        C614   1.340       .  D
C613        H615   1.087       .  S
C614        H616   1.087       .  S
C617        C618   1.341   1_556  D
C617        H619   1.087       .  S
C621        C622   1.341   1_554  D
C622        H624   1.087       .  S
C625        C626   1.340   1_655  D
C625        H627   1.087       .  S
C626       H1268   1.087       .  S
H628       C1266   1.087       .  S
C629        C630   1.341   1_655  D
C629       H1271   1.087       .  S
C630        H632   1.087       .  S
H631       C1269   1.087       .  S
C633        C634   1.340   1_455  D
C633        H955   1.087       .  S
C634        H636   1.087       .  S
H635        C953   1.087       .  S
C637        H959   1.087       .  S
H639        C957   1.087       .  S
O642        V649   1.899       .  S
O642        C972   1.264       .  A
O643        V649   1.894       .  S
O643        C653   1.263       .  A
O644        C654   1.263   1_565  A
O645        C974   1.262   1_565  A
O646        V650   1.901       .  S
O646        C973   1.264   1_565  A
O648        V650   1.904       .  S
O648        C651   1.265   1_554  A
V649        V970   2.089   1_545  T
V650        V969   2.090   1_564  T
C651        C957   1.471       .  S
C652        O962   1.264   1_554  A
C652        C954   1.470       .  S
C653        O966   1.265   1_545  A
C653        C680   1.464       .  S
C654        O965   1.264       .  A
C654        C679   1.463       .  S
O655        V663   1.893       .  S
O655        C665   1.261   1_545  A
O656        C666   1.265   1_545  A
O657        V663   1.902   1_565  S
O657        C667   1.264       .  A
O659        C668   1.263       .  A
O660        V664   1.900       .  S
O661        V664   1.892   1_655  S
O661        C666   1.262       .  A
O662        C665   1.266       .  A
C665        C694   1.463       .  S
C666        C693   1.462       .  S
C667        C950   1.471       .  S
C668        C945   1.470       .  S
O669        V677   1.887       .  S
O669        C679   1.261       .  A
O670        V677   1.897       .  S
O670        C680   1.264       .  A
O671        V677   1.899       .  S
O671        C681   1.264       .  A
O672        V677   1.899   1_565  S
O672        C682   1.262       .  A
O673        V678   1.901       .  S
O673       C1002   1.264   1_554  A
O674        V678   1.902   1_545  S
O674       C1001   1.263       .  A
O675        V678   1.897       .  S
O675       C1000   1.263   1_565  A
O676        V678   1.905       .  S
O676        C999   1.266   1_565  A
V677        V998   2.089   1_545  T
V678        V997   2.089   1_564  T
C679        O996   1.266       .  A
C680        O995   1.264   1_545  A
C681        O994   1.264       .  A
C681        C938   1.470       .  S
C682        O993   1.265       .  A
C682        C942   1.469       .  S
O683        V691   1.899       .  S
O683        C693   1.264       .  A
O684        V691   1.894       .  S
O684        C694   1.261       .  A
O685        V691   1.905   1_545  S
O685        C695   1.264       .  A
O686        V691   1.903       .  S
O686        C696   1.265       .  A
O687        V692   1.900   1_565  S
O687        C696   1.263       .  A
O688        V692   1.899       .  S
O688        C695   1.264       .  A
O689        V692   1.902       .  S
O689        C694   1.266   1_545  A
O690        V692   1.896       .  S
O690        C693   1.262   1_545  A
V691        V692   2.089   1_565  T
C695        C930   1.472       .  S
C696        C933   1.470       .  S
O697        V705   1.903       .  S
O697        C707   1.266       .  A
O698       V1025   1.903       .  S
O698       C1028   1.265       .  A
O699       V1025   1.900   1_554  S
O699        C709   1.265       .  A
O700        V705   1.895       .  S
O700        C710   1.264       .  A
O701        V706   1.893       .  S
O702       V1026   1.897   1_554  S
O703        V706   1.900       .  S
O704       V1026   1.905       .  S
V705       O1018   1.902       .  S
V705       O1019   1.898       .  S
V706       O1022   1.899       .  S
V706       O1024   1.897       .  S
C707        C900   1.481       .  S
C708       O1018   1.265       .  A
C708        C958   1.473       .  S
C709        C920   1.477       .  S
C710        C910   1.479       .  S
O711        V719   1.901       .  S
O711        C721   1.265       .  A
O712        V719   1.899       .  S
O712        C722   1.264       .  A
O713        V719   1.897       .  S
O713        C723   1.265       .  A
O714        V719   1.901       .  S
O714        C724   1.265       .  A
O715        V720   1.896       .  S
O716        V720   1.900       .  S
O717        V720   1.903       .  S
O718        V720   1.900       .  S
C721        C890   1.482       .  S
C722        C949   1.472       .  S
C723        C913   1.478       .  S
C724        C923   1.478       .  S
O725        V733   1.902       .  S
O725        C735   1.266       .  A
O726       V1053   1.900       .  S
O726       C1056   1.264       .  A
O727       V1053   1.902       .  S
O727        C737   1.266       .  A
O728        V733   1.897       .  S
O728        C738   1.265       .  A
O729        V734   1.902       .  S
O729        C738   1.266       .  A
O730       V1054   1.896       .  S
O730        C737   1.265       .  A
O731        V734   1.901       .  S
O731        C736   1.263       .  A
O732       V1054   1.902       .  S
O732       C1055   1.266       .  A
V733       O1046   1.902       .  S
V733       O1047   1.900       .  S
V733        V734   2.085       .  T
V734       O1050   1.896       .  S
V734       O1052   1.898       .  S
C735       O1052   1.265       .  A
C735        C860   1.480       .  S
C736       O1046   1.265       .  A
C736        C941   1.472       .  S
C737        C880   1.479       .  S
C738        C873   1.480       .  S
O739        V747   1.901       .  S
O739        C749   1.266       .  A
O740        V747   1.901       .  S
O740        C750   1.265       .  A
O741        V747   1.898       .  S
O741        C751   1.265       .  A
O742        V747   1.900       .  S
O742        C752   1.265       .  A
O743        V748   1.897       .  S
O743        C752   1.265       .  A
O744        V748   1.903       .  S
O744        C751   1.266       .  A
O745        V748   1.901       .  S
O745        C750   1.263       .  A
O746        V748   1.900       .  S
O746        C749   1.265       .  A
V747        V748   2.085       .  T
C749        C850   1.481       .  S
C750        C934   1.472       .  S
C751        C870   1.481       .  S
C752        C883   1.478       .  S
O753       V1081   1.900       .  S
O754        V761   1.903       .  S
O755        V761   1.897       .  S
O755        C765   1.265   1_655  A
O756       V1081   1.895       .  S
O756        C766   1.264   1_655  A
O757       V1082   1.894       .  S
O758        V762   1.903       .  S
O759       V1082   1.902       .  S
O759       C1084   1.264       .  A
O760        V762   1.903       .  S
O760        C763   1.266       .  A
V761       O1073   1.902       .  S
V761       O1076   1.900   1_554  S
V762       O1077   1.897   1_554  S
V762       O1079   1.903   1_554  S
C763        C903   1.481       .  S
C764       O1079   1.264       .  A
C764        C953   1.471       .  S
C765        C840   1.480       .  S
C766        C830   1.479       .  S
O767        V775   1.899       .  S
O768        V775   1.901       .  S
O769        V775   1.901       .  S
O769        C779   1.266   1_655  A
O770        V775   1.897       .  S
O770        C780   1.265   1_655  A
O771        V776   1.905       .  S
O772        V776   1.898       .  S
O773        V776   1.902       .  S
O773        C778   1.264       .  A
O774        V776   1.903       .  S
O774        C777   1.266       .  A
C777        C893   1.482       .  S
C778        C946   1.472       .  S
C779        C833   1.480       .  S
C780        C843   1.480       .  S
O781        V789   1.900       .  S
O781        C791   1.265       .  A
O782       V1109   1.902       .  S
O782       C1112   1.265   1_554  A
O783       V1109   1.896       .  S
O783        C793   1.265       .  A
O784        V789   1.901       .  S
O784        C794   1.265       .  A
O785        V790   1.897       .  S
O785        C794   1.265       .  A
O786       V1110   1.903       .  S
O786        C793   1.266       .  A
O787        V790   1.902       .  S
O787        C792   1.264       .  A
O788       V1110   1.901       .  S
O788       C1111   1.266       .  A
V789       O1102   1.899       .  S
V789       O1103   1.896       .  S
V789        V790   2.085       .  T
V790       O1106   1.902       .  S
V790       O1108   1.901       .  S
C791       O1108   1.265       .  A
C791        C863   1.480       .  S
C792       O1102   1.264       .  A
C792        C937   1.470       .  S
C793        C820   1.479       .  S
C794        C810   1.479       .  S
O795        V803   1.900       .  S
O795        C805   1.265       .  A
O796        V803   1.903       .  S
O796        C806   1.265       .  A
O797        V803   1.902       .  S
O797        C807   1.266       .  A
O798        V803   1.897       .  S
O798        C808   1.265       .  A
O799        V804   1.903       .  S
O799        C808   1.265       .  A
O800        V804   1.896       .  S
O800        C807   1.265       .  A
O801        V804   1.902       .  S
O801        C806   1.264       .  A
O802        V804   1.901       .  S
O802        C805   1.266       .  A
V803        V804   2.084       .  T
C805        C853   1.480       .  S
C806        C929   1.472       .  S
C807        C813   1.479       .  S
C808        C823   1.479       .  S
C809        C810   1.406       .  A
C809        C814   1.399       .  A
C809        H815   1.083       .  S
C810        C811   1.405       .  A
C811        C812   1.396       .  A
C811        H816   1.083       .  S
C812        C813   1.405       .  A
C812        H817   1.083       .  S
C813        C814   1.405       .  A
C814        H818   1.082       .  S
C819        C820   1.404       .  A
C819        C824   1.395       .  A
C819        H825   1.082       .  S
C820        C821   1.405       .  A
C821        C822   1.400       .  A
C821        H826   1.082       .  S
C822        C823   1.406       .  A
C822        H827   1.082       .  S
C823        C824   1.404       .  A
C824        H828   1.082       .  S
C829        C834   1.395       .  A
C829        H835   1.083       .  S
C830        C831   1.406   1_455  A
C831        C832   1.398       .  A
C831        H836   1.083       .  S
C832        C833   1.405   1_655  A
C832        H837   1.083       .  S
C834        H838   1.083       .  S
C839        C840   1.405   1_655  A
C839        C844   1.396       .  A
C839        H845   1.082       .  S
C841        C842   1.401       .  A
C841        H846   1.082       .  S
C842        H847   1.082       .  S
C843        C844   1.405   1_455  A
C844        H848   1.082       .  S
C849        C850   1.405       .  A
C849        C854   1.399       .  A
C849        H855   1.082       .  S
C850        C851   1.405       .  A
C851        C852   1.398       .  A
C851        H856   1.082       .  S
C852        C853   1.405       .  A
C852        H857   1.082       .  S
C853        C854   1.405       .  A
C854        H858   1.082       .  S
C859        C860   1.405       .  A
C859        C864   1.397       .  A
C859        H865   1.082       .  S
C860       C1181   1.405       .  A
C861       C1180   1.405       .  A
C861        C862   1.398       .  A
C861        H866   1.083       .  S
C862       C1183   1.405       .  A
C862        H867   1.082       .  S
C863       C1182   1.406       .  A
C863        C864   1.405       .  A
C864        H868   1.083       .  S
C869        C870   1.405       .  A
C869        C874   1.399       .  A
C869        H875   1.083       .  S
C870        C871   1.405       .  A
C871        C872   1.397       .  A
C871        H876   1.083       .  S
C872        C873   1.405       .  A
C872        H877   1.083       .  S
C873        C874   1.405       .  A
C874        H878   1.082       .  S
C879        C880   1.405       .  A
C879        C884   1.399       .  A
C879        H885   1.083       .  S
C880        C881   1.405       .  A
C881        C882   1.396       .  A
C881        H886   1.082       .  S
C882        C883   1.404       .  A
C882        H887   1.083       .  S
C883        C884   1.406       .  A
C884        H888   1.083       .  S
C889        C890   1.406       .  A
C889        C894   1.399       .  A
C889        H895   1.083       .  S
C891        C892   1.398       .  A
C891        H896   1.082       .  S
C892        H897   1.082       .  S
C893        C894   1.405       .  A
C894        H898   1.082       .  S
C899        C900   1.405       .  A
C899        C904   1.399       .  A
C899        H905   1.082       .  S
C901        C902   1.401       .  A
C901        H906   1.082       .  S
C902        H907   1.082       .  S
C903       C1224   1.405       .  A
C904       C1223   1.406       .  A
C904        H908   1.082       .  S
C909        C914   1.396       .  A
C909        H915   1.083       .  S
C910        C911   1.405       .  A
C911        C912   1.396       .  A
C911        H916   1.081       .  S
C912        C913   1.404       .  A
C912        H917   1.083       .  S
C914        H918   1.083       .  S
C919        C924   1.397       .  A
C919        H925   1.083       .  S
C920        C921   1.405       .  A
C921        C922   1.398       .  A
C921        H926   1.082       .  S
C922        C923   1.405       .  A
C922        H927   1.082       .  S
C924        H928   1.083       .  S
C929        C930   1.341       .  D
C929        H931   1.087       .  S
C930        H932   1.087       .  S
C933        C934   1.340       .  D
C933        H935   1.087       .  S
C934        H936   1.087       .  S
C937        C938   1.341       .  D
C937        H939   1.087       .  S
C938       H1260   1.087       .  S
H940       C1258   1.087       .  S
C941        C942   1.339       .  D
C941       H1263   1.087       .  S
C942        H944   1.087       .  S
H943       C1261   1.087       .  S
C945        C946   1.341       .  D
C945        H947   1.087       .  S
C949        C950   1.341       .  D
C950        H952   1.087       .  S
C953        C954   1.341   1_556  D
C954        H956   1.087       .  S
C957       C1278   1.340   1_556  D
C958       C1277   1.340       .  D
C958       H1280   1.087       .  S
H960       C1278   1.087       .  S
O962        V969   1.899       .  S
O963        V969   1.894       .  S
O963        C973   1.262   1_556  A
O964        C974   1.265   1_556  A
O966        V970   1.903       .  S
O968        V970   1.903       .  S
O968        C971   1.265       .  A
C971       C1277   1.471       .  S
C972       C1274   1.470       .  S
C973       C1000   1.462       .  S
C974        C999   1.462       .  S
O975        V983   1.894       .  S
O975        C985   1.262   1_545  A
O976        C986   1.264   1_545  A
O977        V983   1.903   1_565  S
O977        C987   1.264       .  A
O979        C988   1.263       .  A
O980        V984   1.900       .  S
O981        V984   1.894       .  S
O981        C986   1.262       .  A
O982        C985   1.265       .  A
C985       C1014   1.463       .  S
C986       C1013   1.461   1_565  S
C987       C1270   1.472       .  S
C988       C1265   1.469       .  S
O989        V997   1.890       .  S
O989        C999   1.261   1_556  A
O990        V997   1.897       .  S
O990       C1000   1.264   1_556  A
O991        V997   1.902       .  S
O991       C1001   1.265   1_556  A
O992        V997   1.902   1_565  S
O992       C1002   1.264       .  A
O993        V998   1.903       .  S
O994        V998   1.903   1_545  S
O995        V998   1.900       .  S
O996        V998   1.909   1_545  S
C1001      C1258   1.472       .  S
C1002      C1262   1.471       .  S
O1003      V1011   1.899       .  S
O1003      C1013   1.264   1_565  A
O1004      V1011   1.894       .  S
O1004      C1014   1.262       .  A
O1005      V1011   1.906   1_545  S
O1005      C1015   1.265       .  A
O1006      V1011   1.904       .  S
O1006      C1016   1.265       .  A
O1007      V1012   1.899   1_565  S
O1007      C1016   1.262       .  A
O1008      V1012   1.899       .  S
O1008      C1015   1.264       .  A
O1009      V1012   1.902       .  S
O1009      C1014   1.266   1_545  A
O1010      V1012   1.895       .  S
O1010      C1013   1.262       .  A
V1011      V1012   2.090   1_565  T
C1015      C1250   1.473       .  S
C1016      C1253   1.470       .  S
O1017      V1025   1.900       .  S
O1017      C1027   1.265       .  A
O1019      C1029   1.265       .  A
O1020      V1025   1.899       .  S
O1020      C1030   1.265       .  A
O1021      V1026   1.904       .  S
O1023      V1026   1.905   1_554  S
C1027      C1220   1.481       .  S
C1028      C1278   1.474   1_556  S
C1029      C1240   1.478       .  S
C1030      C1230   1.480       .  S
O1031      V1039   1.901       .  S
O1031      C1041   1.265       .  A
O1032      V1039   1.903       .  S
O1032      C1042   1.265       .  A
O1033      V1039   1.898       .  S
O1033      C1043   1.265       .  A
O1034      V1039   1.902       .  S
O1034      C1044   1.266       .  A
O1035      V1040   1.901       .  S
O1036      V1040   1.905       .  S
O1037      V1040   1.903       .  S
O1038      V1040   1.904       .  S
C1041      C1210   1.480       .  S
C1042      C1269   1.472       .  S
C1043      C1233   1.480       .  S
C1044      C1243   1.479       .  S
O1045      V1053   1.898       .  S
O1045      C1055   1.265       .  A
O1047      C1057   1.265       .  A
O1048      V1053   1.898   1_556  S
O1048      C1058   1.265       .  A
O1049      V1054   1.902   1_556  S
O1049      C1058   1.265       .  A
O1050      C1057   1.264       .  A
O1051      V1054   1.903       .  S
O1051      C1056   1.264       .  A
V1053      V1054   2.084       .  T
C1055      C1180   1.479       .  S
C1056      C1261   1.472       .  S
C1057      C1200   1.477       .  S
C1058      C1193   1.479       .  S
O1059      V1067   1.900       .  S
O1059      C1069   1.265       .  A
O1060      V1067   1.902       .  S
O1060      C1070   1.265       .  A
O1061      V1067   1.896       .  S
O1061      C1071   1.264       .  A
O1062      V1067   1.897       .  S
O1062      C1072   1.264       .  A
O1063      V1068   1.898       .  S
O1063      C1072   1.265       .  A
O1064      V1068   1.905       .  S
O1064      C1071   1.266       .  A
O1065      V1068   1.901       .  S
O1065      C1070   1.263       .  A
O1066      V1068   1.901       .  S
O1066      C1069   1.265       .  A
V1067      V1068   2.084       .  T
C1069      C1170   1.481       .  S
C1070      C1254   1.473       .  S
C1071      C1190   1.480       .  S
C1072      C1203   1.476       .  S
O1074      V1081   1.900       .  S
O1075      V1081   1.898       .  S
O1075      C1085   1.265   1_655  A
O1076      C1086   1.265   1_655  A
O1078      V1082   1.898       .  S
O1080      V1082   1.901       .  S
O1080      C1083   1.265       .  A
C1083      C1223   1.482       .  S
C1084      C1273   1.471       .  S
C1085      C1160   1.478       .  S
C1086      C1150   1.478       .  S
O1087      V1095   1.902       .  S
O1088      V1095   1.901       .  S
O1089      V1095   1.904       .  S
O1089      C1099   1.266   1_655  A
O1090      V1095   1.899       .  S
O1090      C1100   1.265   1_655  A
O1091      V1096   1.901       .  S
O1092      V1096   1.897       .  S
O1093      V1096   1.902       .  S
O1093      C1098   1.264       .  A
O1094      V1096   1.899       .  S
O1094      C1097   1.265       .  A
C1097      C1213   1.479       .  S
C1098      C1266   1.470       .  S
C1099      C1153   1.478       .  S
C1100      C1163   1.477       .  S
O1101      V1109   1.900   1_556  S
O1101      C1111   1.265   1_556  A
O1103      C1113   1.264       .  A
O1104      V1109   1.901   1_556  S
O1104      C1114   1.265       .  A
O1105      V1110   1.898   1_556  S
O1105      C1114   1.265       .  A
O1106      C1113   1.266       .  A
O1107      V1110   1.902   1_556  S
O1107      C1112   1.264       .  A
V1109      V1110   2.084       .  T
C1111      C1183   1.480       .  S
C1112      C1257   1.472       .  S
C1113      C1140   1.479       .  S
C1114      C1130   1.479       .  S
O1115      V1123   1.900       .  S
O1115      C1125   1.265       .  A
O1116      V1123   1.901       .  S
O1116      C1126   1.264       .  A
O1117      V1123   1.903       .  S
O1117      C1127   1.266       .  A
O1118      V1123   1.898       .  S
O1118      C1128   1.265       .  A
O1119      V1124   1.900       .  S
O1119      C1128   1.265       .  A
O1120      V1124   1.895       .  S
O1120      C1127   1.264       .  A
O1121      V1124   1.904       .  S
O1121      C1126   1.264       .  A
O1122      V1124   1.902       .  S
O1122      C1125   1.266       .  A
V1123      V1124   2.085       .  T
C1125      C1173   1.481       .  S
C1126      C1249   1.472       .  S
C1127      C1133   1.479       .  S
C1128      C1143   1.479       .  S
C1129      C1130   1.406       .  A
C1129      C1134   1.399       .  A
C1129      H1135   1.082       .  S
C1130      C1131   1.405       .  A
C1131      C1132   1.396       .  A
C1131      H1136   1.083       .  S
C1132      C1133   1.405       .  A
C1132      H1137   1.083       .  S
C1133      C1134   1.405       .  A
C1134      H1138   1.083       .  S
C1139      C1140   1.405       .  A
C1139      C1144   1.397       .  A
C1139      H1145   1.082       .  S
C1140      C1141   1.405       .  A
C1141      C1142   1.399       .  A
C1141      H1146   1.082       .  S
C1142      C1143   1.405       .  A
C1142      H1147   1.082       .  S
C1143      C1144   1.404       .  A
C1144      H1148   1.082       .  S
C1149      C1154   1.396       .  A
C1149      H1155   1.082       .  S
C1150      C1151   1.406   1_455  A
C1151      C1152   1.399       .  A
C1151      H1156   1.083       .  S
C1152      C1153   1.405   1_655  A
C1152      H1157   1.083       .  S
C1154      H1158   1.083       .  S
C1159      C1160   1.405   1_655  A
C1159      C1164   1.397       .  A
C1159      H1165   1.082       .  S
C1161      C1162   1.398       .  A
C1161      H1166   1.082       .  S
C1162      H1167   1.082       .  S
C1163      C1164   1.404   1_455  A
C1164      H1168   1.082       .  S
C1169      C1170   1.405       .  A
C1169      C1174   1.399       .  A
C1169      H1175   1.083       .  S
C1170      C1171   1.405       .  A
C1171      C1172   1.398       .  A
C1171      H1176   1.082       .  S
C1172      C1173   1.405       .  A
C1172      H1177   1.082       .  S
C1173      C1174   1.406       .  A
C1174      H1178   1.083       .  S
C1179      C1180   1.405   1_556  A
C1179      C1184   1.398       .  A
C1179      H1185   1.082       .  S
C1181      C1182   1.399       .  A
C1181      H1186   1.083       .  S
C1182      H1187   1.082       .  S
C1183      C1184   1.405   1_554  A
C1184      H1188   1.083       .  S
C1189      C1190   1.405       .  A
C1189      C1194   1.400       .  A
C1189      H1195   1.082       .  S
C1190      C1191   1.405       .  A
C1191      C1192   1.396       .  A
C1191      H1196   1.082       .  S
C1192      C1193   1.404       .  A
C1192      H1197   1.082       .  S
C1193      C1194   1.406       .  A
C1194      H1198   1.082       .  S
C1199      C1200   1.405       .  A
C1199      C1204   1.397       .  A
C1199      H1205   1.082       .  S
C1200      C1201   1.405       .  A
C1201      C1202   1.396       .  A
C1201      H1206   1.083       .  S
C1202      C1203   1.404       .  A
C1202      H1207   1.083       .  S
C1203      C1204   1.405       .  A
C1204      H1208   1.083       .  S
C1209      C1210   1.405       .  A
C1209      C1214   1.399       .  A
C1209      H1215   1.083       .  S
C1211      C1212   1.399       .  A
C1211      H1216   1.081       .  S
C1212      H1217   1.082       .  S
C1213      C1214   1.405       .  A
C1214      H1218   1.082       .  S
C1219      C1220   1.406   1_554  A
C1219      C1224   1.399       .  A
C1219      H1225   1.082       .  S
C1221      C1222   1.397       .  A
C1221      H1226   1.082       .  S
C1222      H1227   1.082       .  S
C1224      H1228   1.082       .  S
C1229      C1234   1.401       .  A
C1229      H1235   1.082       .  S
C1230      C1231   1.405       .  A
C1231      C1232   1.397       .  A
C1231      H1236   1.082       .  S
C1232      C1233   1.405       .  A
C1232      H1237   1.082       .  S
C1234      H1238   1.082       .  S
C1239      C1244   1.398       .  A
C1239      H1245   1.082       .  S
C1240      C1241   1.406       .  A
C1241      C1242   1.398       .  A
C1241      H1246   1.083       .  S
C1242      C1243   1.405       .  A
C1242      H1247   1.083       .  S
C1244      H1248   1.082       .  S
C1249      C1250   1.343       .  D
C1249      H1251   1.087       .  S
C1250      H1252   1.087       .  S
C1253      C1254   1.340       .  D
C1253      H1255   1.087       .  S
C1254      H1256   1.087       .  S
C1257      C1258   1.341   1_556  D
C1257      H1259   1.087       .  S
C1261      C1262   1.341   1_554  D
C1262      H1264   1.087       .  S
C1265      C1266   1.340       .  D
C1265      H1267   1.087       .  S
C1269      C1270   1.341       .  D
C1270      H1272   1.087       .  S
C1273      C1274   1.341       .  D
C1274      H1276   1.087       .  S
