geometry optimzed in LAMMPS
_audit_creation_date              2020-11-30 
_audit_creation_method            'lammps2cif' 
_symmetry_space_group_name_H-M    'P1' 
_symmetry_Int_Tables_number       1 
_symmetry_cell_setting            triclinic 
loop_ 
_symmetry_equiv_pos_as_xyz 
  x,y,z 
_cell_length_a                    38.89008066 
_cell_length_b                    38.85231528448699 
_cell_length_c                    31.816051614104836 
_cell_angle_alpha                 89.42056812050846 
_cell_angle_beta                  88.91031661658765 
_cell_angle_gamma                 91.4154130851197 
loop_ 
_atom_site_label 
_atom_site_type_symbol 
_atom_site_fract_x 
_atom_site_fract_y 
_atom_site_fract_z 
_atom_site_charge 
C1          C  0.18381137  0.48567689  0.23485584     0.05700
C2          C  0.16782673  0.48594796  0.19520633    -0.10500
C3          C  0.13174390  0.98728791  0.20381393     0.03200
C4          C  0.11502813  0.98435539  0.24302091    -0.09000
C5          C  0.13408996  0.98228756  0.27974440     0.05700
C6          C  0.16288057  0.48518457  0.27140470    -0.08400
H7          H  0.18341552  0.48590695  0.16660943     0.11300
H8          H  0.08713842  0.98378141  0.24498284     0.08800
H9          H  0.17386943  0.48356286  0.30229268     0.08600
C10         C  0.27859523  0.49114265  0.27451955     0.05700
C11         C  0.29435562  0.49083166  0.31432053    -0.10500
C12         C  0.33042193  0.48930629  0.31734437     0.03200
C13         C  0.35065403  0.48806864  0.28057818    -0.09000
C14         C  0.33537028  0.48884950  0.24119149     0.05700
C15         C  0.29970969  0.49074167  0.23811959    -0.08400
H16         H  0.27863577  0.49163461  0.34277327     0.11300
H17         H  0.37841064  0.48679122  0.28259582     0.08800
H18         H  0.28893018  0.49246505  0.20712789     0.08600
C19         C  0.49288594  0.19207591  0.25037367     0.05700
C20         C  0.49201641  0.17337252  0.28872253    -0.10500
C21         C  0.49107969  0.13726149  0.28865931     0.03200
C22         C  0.49122798  0.11965747  0.25060037    -0.09000
C23         C  0.49249676  0.13790888  0.21254356     0.05700
C24         C  0.49343817  0.17392277  0.21238971    -0.08400
H25         H  0.49273834  0.18645849  0.31855394     0.11300
H26         H  0.49053664  0.09171632  0.25059347     0.08800
H27         H  0.49432791  0.18782691  0.18264806     0.08600
C28         C  0.48334790  0.28875203  0.27740997     0.05700
C29         C  0.48307197  0.30741489  0.23904168    -0.10500
C30         C  0.48261415  0.34354462  0.23911468     0.03200
C31         C  0.48228784  0.36110005  0.27722984    -0.09000
C32         C  0.48229610  0.34282909  0.31526236     0.05700
C33         C  0.48271971  0.30687386  0.31538150    -0.08400
H34         H  0.48245652  0.29423540  0.20926389     0.11300
H35         H  0.48187215  0.38901681  0.27730182     0.08800
H36         H  0.48264778  0.29297887  0.34512251     0.08600
O37         O  0.08068593  0.48956012  0.05160011    -0.72800
O38         O  0.03831295  0.49037494  0.10228780    -0.51700
C39         C  0.07005479  0.48963013  0.09020208     0.81000
O40         O  0.49106748  0.08688119  0.42969198    -0.57400
O41         O  0.49066564  0.04282205  0.38256045    -0.50400
C42         C  0.49062376  0.07485704  0.39215780     0.73000
O43         O  0.49186587  0.08756301  0.07232884    -0.71900
O44         O  0.48820547  0.04449906  0.12179362    -0.52500
C45         C  0.49085296  0.07626132  0.11049052     0.79000
O46         O  0.07731103  0.48546674  0.40951482    -0.57100
O47         O  0.03287712  0.48810922  0.36360125    -0.50200
C48         C  0.06483533  0.48647557  0.37233778     0.75600
Zr49       Zr  0.05448826  0.49061195  0.98199164     2.54700
O50         O  0.09971911  0.03806223  0.99298089    -0.77600
O51         O  0.09620211  0.44011703  0.47789084    -0.91000
Zr52       Zr  0.49037967  0.06282810  0.00204556     2.64700
O53         O  0.03632516  0.10799763  0.99454364    -0.96000
O54         O  0.45307146  0.11044657  0.50192904    -0.78100
O55         O  0.02159209  0.02974161  0.03555456    -0.81400
O56         O  0.03152507  0.02119199  0.45505454    -2.16100
O57         O  0.48163079  0.39246717  0.45599567    -0.64800
O58         O  0.47828278  0.43545030  0.40674384    -0.49400
C59         C  0.48026761  0.40375673  0.41791007     0.74000
O60         O  0.38619189  0.48751631  0.10049211    -0.57700
O61         O  0.43052111  0.49031662  0.14661511    -0.49700
C62         C  0.39849924  0.48849530  0.13777246     0.75800
O63         O  0.38120531  0.48950258  0.45881199    -0.69100
O64         O  0.42363047  0.48823645  0.40822210    -0.47800
C65         C  0.39183593  0.48896285  0.42022048     0.77200
O66         O  0.48089100  0.39478994  0.09843176    -0.64400
O67         O  0.48278956  0.43870275  0.14566231    -0.51600
C68         C  0.48187791  0.40665460  0.13603022     0.75500
Zr69       Zr  0.48031382  0.41813228  0.02671163     2.77500
O70         O  0.43408233  0.37468786  0.02954349    -0.95200
O71         O  0.02018632  0.37425423  0.98386696    -0.76000
Zr72       Zr  0.40881083  0.48991009  0.02811936     2.70100
O73         O  0.36452020  0.44454177  0.02836393    -0.77300
O74         O  0.37190092  0.04461973  0.00823777    -0.96300
Zr75       Zr  0.48276729  0.49156569  0.10456791     2.21500
Zr76       Zr  0.47833210  0.48890440  0.44459627     2.11100
O77         O  0.44214269  0.45174235  0.48686336    -2.45000
O78         O  0.44477187  0.45395416  0.06800835    -0.77000
O79         O  0.01703930  0.45115606  0.44355495    -0.69200
O80         O  0.44989052  0.03049017  0.04401455    -2.30200
O81         O  0.01791984  0.45398208  0.02407159    -2.26400
O82         O  0.45517823  0.02892340  0.46273392    -0.71000
H83         H  0.04720993  0.03384056  0.43645964     0.81000
H84         H  0.43731832  0.04578969  0.06214229     0.82100
H85         H  0.42764265  0.43737815  0.46959396     0.84300
H86         H  0.03166550  0.43935155  0.04150115     0.81900
H87         H  0.42912103  0.10122266  0.00878602     0.44900
H88         H  0.38315711  0.05613297  0.48002757     0.43900
H89         H  0.37426766  0.42565463  0.04513583     0.43600
H90         H  0.42099757  0.37743259  0.50005736     0.41500
H91         H  0.03877409  0.37711395  0.46126518     0.44700
H92         H  0.09035016  0.42996748  0.00403200     0.39400
H93         H  0.09059042  0.05585623  0.01194398     0.45600
H94         H  0.06447993  0.08945095  0.46930355     0.42000
H95         H  0.44601742  0.35247142  0.02895475     0.46900
H96         H  0.11839374  0.45647755  0.98698322     0.45600
H97         H  0.02660755  0.13009657  0.98537157     0.45800
H98         H  0.34927406  0.03480862  0.00015456     0.46100
C99         C  0.48166572  0.36130481  0.35410888    -0.10700
C100        C  0.48105486  0.37920551  0.38473863    -0.12300
C101        C  0.48204502  0.38215045  0.17015963    -0.10700
C102        C  0.48225421  0.36316281  0.20041619    -0.12300
C103        C  0.49043232  0.11778630  0.32741243    -0.10700
C104        C  0.49027358  0.09913883  0.35793305    -0.12300
C105        C  0.49268215  0.11925790  0.17379707    -0.10700
C106        C  0.49231185  0.10097108  0.14349157    -0.12300
C107        C  0.48284719  0.25048930  0.27964190    -0.13900
C108        C  0.49403317  0.23036705  0.24828913    -0.29100
H109        H  0.47305896  0.23871862  0.30866248     0.15100
H110        H  0.00815819  0.24046869  0.28320671     0.15700
C111        C  0.36630042  0.48911724  0.38763787    -0.10700
C112        C  0.34762028  0.48919957  0.35749180    -0.13200
C113        C  0.37471847  0.48788382  0.17268250    -0.10700
C114        C  0.35640780  0.48811078  0.20360868    -0.12300
C115        C  0.10637649  0.48579085  0.30629658    -0.10700
C116        C  0.08834699  0.48593513  0.33737477    -0.12300
C117        C  0.11431957  0.48752531  0.15262725    -0.10700
C118        C  0.09554122  0.48854210  0.12267363    -0.12300
C119        C  0.22212145  0.48466871  0.23718040    -0.13900
C120        C  0.24032227  0.49279333  0.27192822    -0.29100
H121        H  0.23542858  0.47658693  0.20889748     0.15100
H122        H  0.23562371  0.00429340  0.29564898     0.15700
C123        C  0.18413098  0.48888495  0.73630224     0.05700
C124        C  0.16852749  0.48820596  0.69642435    -0.10500
C125        C  0.13248229  0.97689763  0.70649012     0.03200
C126        C  0.11507836  0.97888759  0.74518612    -0.09000
C127        C  0.13348942  0.98148396  0.78242503     0.05700
C128        C  0.16277714  0.48831340  0.77257668    -0.08400
H129        H  0.18438933  0.48918284  0.66803656     0.11300
H130        H  0.08717032  0.97873036  0.74627135     0.08800
H131        H  0.17343649  0.49021542  0.80360732     0.08600
C132        C  0.27900181  0.48582903  0.77590064     0.05700
C133        C  0.29530135  0.48802671  0.81527885    -0.10500
C134        C  0.33149075  0.48846441  0.81762637     0.03200
C135        C  0.35133249  0.48673238  0.78062496    -0.09000
C136        C  0.33548138  0.48414676  0.74171336     0.05700
C137        C  0.29966697  0.48338366  0.73930509    -0.08400
H138        H  0.27990466  0.48938140  0.84393468     0.11300
H139        H  0.37919315  0.48723440  0.78210898     0.08800
H140        H  0.28835033  0.48030849  0.70875327     0.08600
C141        C  0.49320590  0.19281400  0.75159685     0.05700
C142        C  0.49194693  0.17388278  0.78979377    -0.10500
C143        C  0.49356255  0.13784141  0.78953302     0.03200
C144        C  0.49637017  0.12055143  0.75130382    -0.09000
C145        C  0.49751638  0.13900727  0.71330623     0.05700
C146        C  0.49630792  0.17497061  0.71351944    -0.08400
H147        H  0.49035554  0.18674701  0.81972752     0.11300
H148        H  0.49728561  0.09266871  0.75110531     0.08800
H149        H  0.49717255  0.18905885  0.68390337     0.08600
C150        C  0.47879647  0.28886305  0.77860405     0.05700
C151        C  0.47780443  0.30722975  0.74011001    -0.10500
C152        C  0.47680963  0.34329673  0.73978741     0.03200
C153        C  0.47661312  0.36116057  0.77770822    -0.09000
C154        C  0.47747722  0.34319033  0.81593580     0.05700
C155        C  0.47825414  0.30722639  0.81641175    -0.08400
H156        H  0.47730569  0.29384383  0.71046760     0.11300
H157        H  0.47608302  0.38907302  0.77746128     0.08800
H158        H  0.47896421  0.29354550  0.84625337     0.08600
O159        O  0.08174326  0.48659789  0.55174847    -0.72800
O160        O  0.03953922  0.48633455  0.60280074    -0.51700
C161        C  0.07125560  0.48641609  0.59044990     0.81000
O162        O  0.49040032  0.08677198  0.93064747    -0.57400
O163        O  0.48707970  0.04285112  0.88356786    -0.50400
C164        C  0.48930164  0.07490076  0.89307097     0.73000
O165        O  0.49628743  0.08919777  0.57178332    -0.71900
O166        O  0.49298633  0.04638676  0.62159562    -0.52500
C167        C  0.49557868  0.07810988  0.61012538     0.79000
O168        O  0.07634847  0.48825406  0.90950328    -0.57100
O169        O  0.03166851  0.49086011  0.86401977    -0.50200
C170        C  0.06368775  0.48886685  0.87241759     0.75600
Zr171      Zr  0.05543078  0.48660007  0.48208867     2.54700
O172        O  0.11043183  0.02103446  0.49414302    -0.77600
O173        O  0.09634536  0.44503896  0.97955264    -0.91000
Zr174      Zr  0.49392039  0.06396264  0.50137484     2.64700
O175        O  0.05154102  0.09634198  0.49481787    -0.96000
O176        O  0.45217003  0.11149552  0.00221570    -0.78100
O177        O  0.03099891  0.01989249  0.53578270    -0.81400
O178        O  0.02260180  0.03060397  0.95387846    -2.16100
O179        O  0.48059173  0.39346412  0.95624186    -0.64800
O180        O  0.47912848  0.43648837  0.90682270    -0.49400
C181        C  0.47976233  0.40473536  0.91810479     0.74000
O182        O  0.38553815  0.48421566  0.60067940    -0.57700
O183        O  0.42978968  0.48804397  0.64686303    -0.49700
C184        C  0.39785813  0.48515346  0.63795515     0.75800
O185        O  0.38270835  0.49110114  0.95851408    -0.69100
O186        O  0.42527046  0.48998996  0.90808182    -0.47800
C187        C  0.39346147  0.49072188  0.91997066     0.77200
O188        O  0.47799933  0.39344401  0.59809728    -0.64400
O189        O  0.48058082  0.43733502  0.64534792    -0.51600
C190        C  0.47877730  0.40531085  0.63571401     0.75500
Zr191      Zr  0.47948761  0.41705134  0.52644684     2.77500
O192        O  0.43310904  0.37373283  0.52675846    -0.95200
O193        O  0.02334684  0.37088128  0.48541511    -0.76000
Zr194      Zr  0.40770184  0.48849586  0.52821917     2.70100
O195        O  0.36336621  0.44322105  0.52808815    -0.77300
O196        O  0.37736902  0.04283380  0.50603190    -0.96300
Zr197      Zr  0.48179085  0.49046763  0.60473569     2.21500
Zr198      Zr  0.47976931  0.48987258  0.94470736     2.11100
O199        O  0.44322191  0.45296964  0.98697424    -2.45000
O200        O  0.44408168  0.45285401  0.56778675    -0.77000
O201        O  0.01593870  0.45516198  0.94350234    -0.69200
O202        O  0.45451900  0.03077291  0.54395005    -2.30200
O203        O  0.01927912  0.44992553  0.52470722    -2.26400
O204        O  0.44983490  0.02977068  0.96354902    -0.71000
H205        H  0.03769209  0.04413112  0.93540713     0.81000
H206        H  0.44139748  0.04566505  0.56203294     0.82100
H207        H  0.42865443  0.43865040  0.96974906     0.84300
H208        H  0.03321979  0.43544958  0.54207222     0.81900
H209        H  0.43107282  0.09942515  0.51164162     0.44900
H210        H  0.37928967  0.05948648  0.98408996     0.43900
H211        H  0.37452392  0.42297662  0.54051527     0.43600
H212        H  0.42294032  0.37623788  0.00189218     0.41500
H213        H  0.04208113  0.38611522  0.97536498     0.44700
H214        H  0.09015636  0.42480573  0.50212746     0.39400
H215        H  0.10518633  0.03702738  0.51730688     0.45600
H216        H  0.05112988  0.10102367  0.97060619     0.42000
H217        H  0.44487275  0.35164176  0.52291943     0.46900
H218        H  0.11857471  0.45096644  0.48515851     0.45600
H219        H  0.04346879  0.11971426  0.48814462     0.45800
H220        H  0.35448671  0.03216839  0.50078189     0.46100
C221        C  0.47832311  0.36199541  0.85455685    -0.10700
C222        C  0.47919218  0.38006887  0.88503590    -0.12300
C223        C  0.47751907  0.38092750  0.66999644    -0.10700
C224        C  0.47678978  0.36245819  0.70074724    -0.12300
C225        C  0.49205275  0.11812059  0.82825520    -0.10700
C226        C  0.49077616  0.09933343  0.85876284    -0.12300
C227        C  0.49836059  0.12065617  0.67415413    -0.10700
C228        C  0.49761284  0.10285205  0.64329878    -0.12300
C229        C  0.47971945  0.25064819  0.78095208    -0.13900
C230        C  0.49206751  0.23107442  0.74967860    -0.29100
H231        H  0.47040215  0.23858124  0.80999530     0.15100
H232        H  0.01020088  0.23963880  0.69831912     0.15700
C233        C  0.36800950  0.49081142  0.88733926    -0.10700
C234        C  0.34916103  0.49017025  0.85737799    -0.13200
C235        C  0.37418726  0.48320681  0.67283214    -0.10700
C236        C  0.35609217  0.48288479  0.70390385    -0.12300
C237        C  0.10558863  0.48649118  0.80653426    -0.10700
C238        C  0.08710305  0.48733612  0.83726787    -0.12300
C239        C  0.11548153  0.48610402  0.65296898    -0.10700
C240        C  0.09687468  0.48621629  0.62281382    -0.12300
C241        C  0.22251816  0.49115794  0.73883212    -0.13900
C242        C  0.24057454  0.48462074  0.77407786    -0.29100
H243        H  0.23616778  0.49840773  0.70996963     0.15100
H244        H  0.23544310  0.00984416  0.79097210     0.15700
C245        C  0.18732854  0.98638487  0.23825093     0.05700
C246        C  0.16782215  0.98813480  0.20143130    -0.10500
C247        C  0.13169649  0.48659718  0.19254090     0.03200
C248        C  0.11160126  0.48667106  0.22943740    -0.09000
C249        C  0.12715601  0.48589989  0.26861204     0.05700
C250        C  0.17005179  0.98311023  0.27748867    -0.08400
H251        H  0.18070281  0.99043188  0.17097563     0.11300
H252        H  0.08378206  0.48724703  0.22768364     0.08800
H253        H  0.18416473  0.98062394  0.30629694     0.08600
C254        C  0.28475886  0.99715154  0.26195224     0.05700
C255        C  0.30408494  0.99660646  0.29894859    -0.10500
C256        C  0.34013787  0.99735440  0.29675551     0.03200
C257        C  0.35708363  0.99852084  0.25763014    -0.09000
C258        C  0.33823581  0.99947163  0.22069859     0.05700
C259        C  0.30225847  0.99909162  0.22273037    -0.08400
H260        H  0.29109605  0.99546486  0.32941076     0.11300
H261        H  0.38498102  0.99880972  0.25591339     0.08800
H262        H  0.28834785  0.00080282  0.19370640     0.08600
C263        C  0.48120229  0.69149863  0.27563091     0.05700
C264        C  0.48004268  0.67169165  0.31272100    -0.10500
C265        C  0.47833896  0.63581620  0.31105188     0.03200
C266        C  0.47820130  0.61923740  0.27227061    -0.09000
C267        C  0.48003952  0.63848527  0.23485305     0.05700
C268        C  0.48148571  0.67464475  0.23641892    -0.08400
H269        H  0.48022064  0.68423978  0.34302755     0.11300
H270        H  0.47713043  0.59132770  0.27122434     0.08800
H271        H  0.48357579  0.68928311  0.20732042     0.08600
C272        C  0.47175393  0.78931370  0.25484867     0.05700
C273        C  0.46986838  0.80918270  0.21793544    -0.10500
C274        C  0.47124108  0.84509101  0.21953899     0.03200
C275        C  0.47395380  0.86162359  0.25819383    -0.09000
C276        C  0.47503966  0.84233878  0.29550496     0.05700
C277        C  0.47389124  0.80618894  0.29396883    -0.08400
H278        H  0.46794580  0.79666323  0.18772099     0.11300
H279        H  0.47520491  0.88952865  0.25923688     0.08800
H280        H  0.47422169  0.79165491  0.32313317     0.08600
O281        O  0.07944642  0.99227419  0.06540939    -0.72800
O282        O  0.03581229  0.99240348  0.11461328    -0.51700
C283        C  0.06778675  0.99210441  0.10360049     0.81000
O284        O  0.47891360  0.58543787  0.45169649    -0.57400
O285        O  0.47761431  0.54162184  0.40425261    -0.50400
C286        C  0.47793989  0.57353729  0.41412398     0.73000
O287        O  0.48244356  0.58847604  0.09325660    -0.71900
O288        O  0.48356960  0.54540154  0.14263210    -0.52500
C289        C  0.48292669  0.57727882  0.13150420     0.79000
O290        O  0.08608719  0.97831459  0.42320281    -0.57100
O291        O  0.04291590  0.98422602  0.37612221    -0.50200
C292        C  0.07452571  0.98051938  0.38567585     0.75600
Zr293      Zr  0.05565619  0.99242801  0.99451060     2.54700
O294        O  0.09828966  0.53647127  0.97770959    -0.77600
O295        O  0.09981848  0.93119273  0.49293844    -0.91000
Zr296      Zr  0.48255507  0.56327620  0.02279769     2.64700
O297        O  0.03379661  0.60587667  0.98453090    -0.96000
O298        O  0.43772086  0.60629196  0.52387380    -0.78100
O299        O  0.02140992  0.52775822  0.02451948    -0.81400
O300        O  0.02042389  0.52440435  0.44337722    -2.16100
O301        O  0.48230424  0.89323053  0.43626770    -0.64800
O302        O  0.48476947  0.93582028  0.38615460    -0.49400
C303        C  0.48259649  0.90405729  0.39786114     0.74000
O304        O  0.38629220  0.99820076  0.07723077    -0.57700
O305        O  0.42979756  0.99593591  0.12440976    -0.49700
C306        C  0.39800271  0.99796283  0.11480938     0.75800
O307        O  0.39258446  0.99675509  0.43483982    -0.69100
O308        O  0.43570081  0.99220097  0.38548917    -0.47800
C309        C  0.40398655  0.99508861  0.39670114     0.77200
O310        O  0.47181578  0.89489005  0.07829165    -0.64400
O311        O  0.47687681  0.93891147  0.12505849    -0.51600
C312        C  0.47330239  0.90699843  0.11575148     0.75500
Zr313      Zr  0.47482695  0.91804749  0.00644696     2.77500
O314        O  0.42466813  0.87920635  0.00763816    -0.95200
O315        O  0.02115715  0.87712248  0.99379992    -0.76000
Zr316      Zr  0.41039635  0.99620796  0.00567618     2.70100
O317        O  0.36303839  0.95407804  0.00498907    -0.77300
O318        O  0.36744066  0.53577596  0.03257816    -0.96300
Zr319      Zr  0.48258386  0.99125609  0.08381893     2.21500
Zr320      Zr  0.48908790  0.98993216  0.42340644     2.11100
O321        O  0.44959268  0.95581477  0.46530063    -2.45000
O322        O  0.44195739  0.95701352  0.04673616    -0.77000
O323        O  0.02187568  0.94787269  0.45450016    -0.69200
O324        O  0.44578643  0.52747277  0.06577469    -2.30200
O325        O  0.01761087  0.95642500  0.03559689    -2.26400
O326        O  0.44304479  0.52557872  0.48523756    -0.71000
H327        H  0.03454225  0.53839593  0.42434602     0.81000
H328        H  0.43212816  0.54142257  0.08431313     0.82100
H329        H  0.43453112  0.94219638  0.44793436     0.84300
H330        H  0.03075025  0.94169795  0.05363447     0.81900
H331        H  0.41975902  0.59767569  0.03819448     0.44900
H332        H  0.37274600  0.54997024  0.50836085     0.43900
H333        H  0.37056138  0.93508038  0.02335711     0.43600
H334        H  0.42251356  0.88265783  0.48290817     0.41500
H335        H  0.03968094  0.87533303  0.50985749     0.44700
H336        H  0.09092249  0.93200798  0.01895831     0.39400
H337        H  0.09271968  0.55175499  0.00147693     0.45600
H338        H  0.04769270  0.59653834  0.45987237     0.42000
H339        H  0.43357551  0.85685598  0.99818721     0.46900
H340        H  0.11908945  0.95752125  0.99995618     0.45600
H341        H  0.02344864  0.62825933  0.97782889     0.45800
H342        H  0.34566241  0.52520310  0.02273232     0.46100
C343        C  0.47759151  0.86030944  0.33492938    -0.10700
C344        C  0.47994801  0.87882488  0.36512023    -0.12300
C345        C  0.47128300  0.88312181  0.15032367    -0.10700
C346        C  0.47072428  0.86509259  0.18133853    -0.12300
C347        C  0.47748208  0.61585314  0.34922587    -0.10700
C348        C  0.47740849  0.59768867  0.38003367    -0.12300
C349        C  0.48119290  0.62049110  0.19530109    -0.10700
C350        C  0.48222026  0.60217362  0.16479701    -0.12300
C351        C  0.47082826  0.75121268  0.25066702    -0.13900
C352        C  0.48296230  0.72954200  0.27968342    -0.29100
H353        H  0.46017143  0.74078612  0.22205088     0.15100
H354        H  0.99829304  0.74054409  0.19779377     0.15700
C355        C  0.37931098  0.99632579  0.36376389    -0.10700
C356        C  0.36020573  0.99690109  0.33434895    -0.13200
C357        C  0.37382511  0.99984645  0.14922146    -0.10700
C358        C  0.35620467  0.00031615  0.18075768    -0.12300
C359        C  0.11633290  0.98001671  0.31974123    -0.10700
C360        C  0.09872901  0.97941321  0.35128921    -0.12300
C361        C  0.11145517  0.98956465  0.16635247    -0.10700
C362        C  0.09239000  0.99108470  0.13684622    -0.12300
C363        C  0.22551428  0.98700739  0.23437437    -0.13900
C364        C  0.24655036  0.99663943  0.26566275    -0.29100
H365        H  0.23633889  0.97942528  0.20432456     0.15100
H366        H  0.22698585  0.50095689  0.30016409     0.15700
C367        C  0.18740319  0.98059040  0.74129786     0.05700
C368        C  0.16831565  0.97738427  0.70462338    -0.10500
C369        C  0.13243977  0.48622572  0.69319038     0.03200
C370        C  0.11193437  0.48499582  0.72977318    -0.09000
C371        C  0.12700495  0.48625804  0.76924038     0.05700
C372        C  0.16976266  0.98231898  0.78061843    -0.08400
H373        H  0.18142140  0.97611191  0.67428874     0.11300
H374        H  0.08412925  0.48359886  0.72752889     0.08800
H375        H  0.18387154  0.98400381  0.80955182     0.08600
C376        C  0.28460874  0.99893688  0.75853722     0.05700
C377        C  0.30352603  0.00176134  0.79539423    -0.10500
C378        C  0.33935500  0.00181427  0.79383490     0.03200
C379        C  0.35693026  0.99994198  0.75522450    -0.09000
C380        C  0.33871734  0.99780888  0.71778224     0.05700
C381        C  0.30242293  0.99723707  0.71931672    -0.08400
H382        H  0.29027511  0.00298026  0.82564271     0.11300
H383        H  0.38483272  0.99990217  0.75435378     0.08800
H384        H  0.28842680  0.99588835  0.69027200     0.08600
C385        C  0.48316777  0.69225118  0.77422674     0.05700
C386        C  0.48318458  0.67243947  0.81137220    -0.10500
C387        C  0.48196765  0.63651803  0.80985045     0.03200
C388        C  0.48134278  0.61990039  0.77114554    -0.09000
C389        C  0.48181286  0.63904297  0.73367667     0.05700
C390        C  0.48270954  0.67525047  0.73505551    -0.08400
H391        H  0.48366746  0.68501171  0.84165017     0.11300
H392        H  0.48053590  0.59198370  0.77018517     0.08800
H393        H  0.48366562  0.68974153  0.70582267     0.08600
C394        C  0.47325001  0.79028788  0.75348631     0.05700
C395        C  0.47314325  0.81049980  0.71668000    -0.10500
C396        C  0.47307425  0.84638878  0.71885600     0.03200
C397        C  0.47265037  0.86255833  0.75785306    -0.09000
C398        C  0.47257252  0.84295139  0.79494442     0.05700
C399        C  0.47279402  0.80682322  0.79292998    -0.08400
H400        H  0.47356401  0.79827884  0.68617909     0.11300
H401        H  0.47271267  0.89045251  0.75933066     0.08800
H402        H  0.47208063  0.79201374  0.82192512     0.08600
O403        O  0.08501946  0.97775340  0.56563334    -0.72800
O404        O  0.04121194  0.98093293  0.61420201    -0.51700
C405        C  0.07294276  0.97840380  0.60356302     0.81000
O406        O  0.48031107  0.58606439  0.95076028    -0.57400
O407        O  0.47992836  0.54213586  0.90347037    -0.50400
C408        C  0.48001509  0.57408512  0.91315315     0.73000
O409        O  0.48194071  0.58755297  0.59325929    -0.71900
O410        O  0.48164936  0.54453396  0.64276985    -0.52500
C411        C  0.48182220  0.57645190  0.63151213     0.79000
O412        O  0.08069395  0.98904678  0.92345297    -0.57100
O413        O  0.03801355  0.99149230  0.87513128    -0.50200
C414        C  0.06973595  0.98913581  0.88549968     0.75600
Zr415      Zr  0.06196460  0.98015265  0.49459932     2.54700
O416        O  0.10038234  0.53128524  0.47771427    -0.77600
O417        O  0.09676139  0.94613865  0.99362012    -0.91000
Zr418      Zr  0.48100037  0.56210636  0.52322035     2.64700
O419        O  0.03376882  0.60213855  0.48513831    -0.96000
O420        O  0.44016171  0.60833783  0.02368285    -0.78100
O421        O  0.02212068  0.52337953  0.52487522    -0.81400
O422        O  0.01961959  0.52870631  0.94364976    -2.16100
O423        O  0.47462912  0.89288810  0.93620937    -0.64800
O424        O  0.47768927  0.93597253  0.88671798    -0.49400
C425        C  0.47550235  0.90410186  0.89798070     0.74000
O426        O  0.39167981  0.99455158  0.57659347    -0.57700
O427        O  0.43487691  0.99460647  0.62430120    -0.49700
C428        C  0.40290865  0.99467627  0.61440913     0.75800
O429        O  0.38684973  0.99929169  0.93494158    -0.69100
O430        O  0.43032011  0.99496127  0.88606574    -0.47800
C431        C  0.39871215  0.99830706  0.89692476     0.77200
O432        O  0.47944981  0.89670527  0.57835650    -0.64400
O433        O  0.48331314  0.94079252  0.62523467    -0.51600
C434        C  0.47996639  0.90889980  0.61582137     0.75500
Zr435      Zr  0.48381911  0.91908812  0.50625034     2.77500
O436        O  0.43589303  0.87751877  0.50828087    -0.95200
O437        O  0.01936073  0.86718593  0.49417965    -0.76000
Zr438      Zr  0.41657293  0.99489925  0.50528327     2.70100
O439        O  0.37028929  0.95156739  0.50609426    -0.77300
O440        O  0.36678731  0.53476232  0.53272912    -0.96300
Zr441      Zr  0.48875583  0.99290696  0.58391820     2.21500
Zr442      Zr  0.48253996  0.98979251  0.92450007     2.11100
O443        O  0.44206407  0.95626771  0.96556114    -2.45000
O444        O  0.44979221  0.95724700  0.54619845    -0.77000
O445        O  0.01789687  0.95749905  0.95438993    -0.69200
O446        O  0.44441407  0.52615967  0.56621169    -2.30200
O447        O  0.02167520  0.94634428  0.53509787    -2.26400
O448        O  0.44443277  0.52676968  0.98503946    -0.71000
H449        H  0.03381993  0.54243630  0.92444807     0.81000
H450        H  0.43069330  0.53997279  0.58486216     0.82100
H451        H  0.42671328  0.94332283  0.94779808     0.84300
H452        H  0.03365903  0.93071959  0.55319543     0.81900
H453        H  0.42036577  0.59814173  0.54511718     0.44900
H454        H  0.37466985  0.55218350  0.00988157     0.43900
H455        H  0.38178258  0.92969446  0.51231104     0.43600
H456        H  0.41038817  0.88713689  0.98418375     0.41500
H457        H  0.04107567  0.88739369  0.97791650     0.44700
H458        H  0.09218649  0.91656254  0.51718288     0.39400
H459        H  0.09273408  0.54905257  0.49768587     0.45600
H460        H  0.04726713  0.60013860  0.95894743     0.42000
H461        H  0.44651323  0.85514089  0.50233031     0.46900
H462        H  0.12251045  0.94080398  0.50109838     0.45600
H463        H  0.02310925  0.62429747  0.47806674     0.45800
H464        H  0.34444812  0.52379440  0.52553641     0.46100
C465        C  0.47292662  0.86066207  0.83461931    -0.10700
C466        C  0.47388521  0.87913007  0.86492817    -0.12300
C467        C  0.47665991  0.88509452  0.65028358    -0.10700
C468        C  0.47450404  0.86681192  0.68099940    -0.12300
C469        C  0.48103687  0.61648076  0.84806201    -0.10700
C470        C  0.48025796  0.59819140  0.87884361    -0.12300
C471        C  0.48164857  0.62070381  0.69434120    -0.10700
C472        C  0.48170536  0.60167102  0.66446918    -0.12300
C473        C  0.47292585  0.75218626  0.74885789    -0.13900
C474        C  0.48422214  0.73040467  0.77835100    -0.29100
H475        H  0.46338356  0.74195987  0.71957679     0.15100
H476        H  0.99622080  0.74073593  0.69666790     0.15700
C477        C  0.37507067  0.00095663  0.86333174    -0.10700
C478        C  0.35808253  0.00215611  0.83221158    -0.13200
C479        C  0.37768661  0.99516336  0.64840149    -0.10700
C480        C  0.35809944  0.99608924  0.67846921    -0.12300
C481        C  0.11436378  0.98399805  0.82178418    -0.10700
C482        C  0.09496939  0.98633163  0.85183783    -0.12300
C483        C  0.11355702  0.97586366  0.66832206    -0.10700
C484        C  0.09648955  0.97638612  0.63726632    -0.12300
C485        C  0.22553719  0.98181860  0.73637611    -0.13900
C486        C  0.24646157  0.99797787  0.76322979    -0.29100
H487        H  0.23655800  0.96996528  0.70862553     0.15100
H488        H  0.22709210  0.47771881  0.80314397     0.15700
C489        C  0.68257438  0.49662585  0.27016201     0.05700
C490        C  0.66498305  0.49719060  0.23181454    -0.10500
C491        C  0.63107148  0.98234112  0.21111394     0.03200
C492        C  0.61536396  0.98223906  0.25098858    -0.09000
C493        C  0.63529953  0.98218230  0.28714078     0.05700
C494        C  0.66325848  0.49492935  0.30815648    -0.08400
H495        H  0.67887222  0.50005336  0.20214614     0.11300
H496        H  0.58752269  0.98223186  0.25389227     0.08800
H497        H  0.67629984  0.49516853  0.33796840     0.08600
C498        C  0.78022662  0.49001156  0.24166177     0.05700
C499        C  0.79785941  0.49016986  0.28003156    -0.10500
C500        C  0.83388348  0.49071849  0.28022396     0.03200
C501        C  0.85263068  0.49076638  0.24229038    -0.09000
C502        C  0.83566168  0.49022967  0.20396997     0.05700
C503        C  0.79953384  0.48972278  0.20364784    -0.08400
H504        H  0.78399244  0.48917892  0.30982220     0.11300
H505        H  0.88053050  0.49113202  0.24260657     0.08800
H506        H  0.78647056  0.48929866  0.17384789     0.08600
C507        C  0.99726514  0.19182464  0.25018477     0.05700
C508        C  0.00108374  0.17169310  0.28648286    -0.10500
C509        C  0.00164074  0.13589022  0.28411566     0.03200
C510        C  0.99912441  0.11969281  0.24519448    -0.09000
C511        C  0.99582795  0.13930012  0.20839210     0.05700
C512        C  0.99485954  0.17539285  0.21078251    -0.08400
H513        H  0.00287071  0.18390577  0.31690390     0.11300
H514        H  0.99942707  0.09182239  0.24359703     0.08800
H515        H  0.99278743  0.19028493  0.18205949     0.08600
C516        C  0.98151689  0.28888773  0.23261022     0.05700
C517        C  0.97999770  0.30866824  0.19572507    -0.10500
C518        C  0.97991323  0.34446638  0.19747018     0.03200
C519        C  0.98076470  0.36107939  0.23621142    -0.09000
C520        C  0.98159353  0.34184835  0.27359874     0.05700
C521        C  0.98216386  0.30565558  0.27191230    -0.08400
H522        H  0.97930957  0.29615127  0.16540684     0.11300
H523        H  0.98053161  0.38897618  0.23726523     0.08800
H524        H  0.98231828  0.29088499  0.30093626     0.08600
O525        O  0.57900611  0.49435309  0.09111565    -0.72800
O526        O  0.53631116  0.49327138  0.14152880    -0.51700
C527        C  0.56800192  0.49437832  0.12955318     0.81000
O528        O  0.00088726  0.08495187  0.42502719    -0.57400
O529        O  0.99690788  0.04184472  0.37691826    -0.50400
C530        C  0.00001344  0.07354034  0.38718396     0.73000
O531        O  0.98967378  0.09100894  0.06618284    -0.71900
O532        O  0.98604294  0.04727696  0.11487427    -0.52500
C533        C  0.98869242  0.07928087  0.10424803     0.79000
O534        O  0.57549912  0.49083919  0.44884186    -0.57100
O535        O  0.53122901  0.49007815  0.40253561    -0.50200
C536        C  0.56337525  0.49062916  0.41145518     0.75600
Zr537      Zr  0.55384900  0.49125798  0.02115333     2.54700
O538        O  0.60270472  0.02595461  0.99857056    -0.77600
O539        O  0.59357931  0.44428914  0.52012342    -0.91000
Zr540      Zr  0.98772166  0.06724212  0.99505245     2.64700
O541        O  0.54161534  0.10017785  0.00059069    -0.96000
O542        O  0.96244274  0.10963176  0.49905249    -0.78100
O543        O  0.52316138  0.02458829  0.04283534    -0.81400
O544        O  0.52813329  0.02604007  0.46091333    -2.16100
O545        O  0.98095414  0.39148547  0.41506619    -0.64800
O546        O  0.97971307  0.43530394  0.36666500    -0.49400
C547        C  0.98040908  0.40322927  0.37709926     0.74000
O548        O  0.88694023  0.49214394  0.06285944    -0.57700
O549        O  0.93149264  0.49089897  0.10863932    -0.49700
C550        C  0.89929704  0.49121908  0.10009672     0.75800
O551        O  0.88483379  0.49101815  0.42053702    -0.69100
O552        O  0.92702262  0.48942228  0.36962817    -0.47800
C553        C  0.89545833  0.49054982  0.38194244     0.77200
O554        O  0.97795628  0.39485722  0.05652209    -0.64400
O555        O  0.98225272  0.43794715  0.10465807    -0.51600
C556        C  0.97977251  0.40624100  0.09427390     0.75500
Zr557      Zr  0.97828712  0.41972644  0.98566764     2.77500
O558        O  0.93115979  0.37725355  0.98683261    -0.95200
O559        O  0.52431247  0.37463721  0.02659661    -0.76000
Zr560      Zr  0.90928524  0.49395024  0.99038738     2.70100
O561        O  0.86405614  0.44948526  0.99316809    -0.77300
O562        O  0.87050629  0.04397010  0.99734961    -0.96300
Zr563      Zr  0.98391101  0.49125625  0.06574000     2.21500
Zr564      Zr  0.98097179  0.48880391  0.40590242     2.11100
O565        O  0.94395341  0.45187593  0.44765449    -2.45000
O566        O  0.94433968  0.45588046  0.02851419    -0.77000
O567        O  0.51563911  0.45312857  0.48305926    -0.69200
O568        O  0.94865124  0.03237246  0.03629267    -2.30200
O569        O  0.51836249  0.45457649  0.06446470    -2.26400
O570        O  0.95820354  0.02910733  0.45641579    -0.71000
H571        H  0.54298912  0.03916173  0.44176252     0.81000
H572        H  0.93528978  0.04682581  0.05460594     0.82100
H573        H  0.92901197  0.43819368  0.43016298     0.84300
H574        H  0.53248356  0.44091083  0.08251465     0.81900
H575        H  0.92601555  0.10273438  0.97896700     0.44900
H576        H  0.89176745  0.06185507  0.47981381     0.43900
H577        H  0.87430114  0.43010852  0.00857821     0.43600
H578        H  0.92001939  0.37784564  0.46080143     0.41500
H579        H  0.54485174  0.38593971  0.51857948     0.44700
H580        H  0.58867502  0.43035735  0.04493249     0.39400
H581        H  0.59318246  0.04747209  0.00980515     0.45600
H582        H  0.55255597  0.10181842  0.46861031     0.42000
H583        H  0.94169033  0.35585114  0.97666215     0.46900
H584        H  0.61713376  0.45620522  0.02743668     0.45600
H585        H  0.53263727  0.12380198  0.00090191     0.45800
H586        H  0.84779867  0.03252522  0.99329807     0.46100
C587        C  0.98126490  0.35997198  0.31314301    -0.10700
C588        C  0.98076344  0.37857764  0.34344734    -0.12300
C589        C  0.97913484  0.38188137  0.12809763    -0.10700
C590        C  0.97917768  0.36416913  0.15923846    -0.12300
C591        C  0.00306254  0.11572586  0.32205397    -0.10700
C592        C  0.00244117  0.09783812  0.35315220    -0.12300
C593        C  0.99311168  0.12174112  0.16865004    -0.10700
C594        C  0.99093584  0.10375440  0.13793140    -0.12300
C595        C  0.98148600  0.25092294  0.22804672    -0.13900
C596        C  0.99648940  0.22977215  0.25532595    -0.29100
H597        H  0.96978272  0.24036750  0.20013348     0.15100
H598        H  0.50382153  0.24217761  0.21928522     0.15700
C599        C  0.87028381  0.49103565  0.34953567    -0.10700
C600        C  0.85210937  0.49098856  0.31922962    -0.13200
C601        C  0.87512363  0.49063533  0.13501874    -0.10700
C602        C  0.85588928  0.49033694  0.16535785    -0.12300
C603        C  0.60693633  0.49158006  0.34638333    -0.10700
C604        C  0.58773713  0.49109680  0.37674783    -0.12300
C605        C  0.61088668  0.49535782  0.19258196    -0.10700
C606        C  0.59288757  0.49533745  0.16217864    -0.12300
C607        C  0.72086774  0.49862572  0.27180264    -0.13900
C608        C  0.74189349  0.48888581  0.23996228    -0.29100
H609        H  0.73179913  0.50786138  0.30080166     0.15100
H610        H  0.73823110  0.00662192  0.29313421     0.15700
C611        C  0.68270827  0.48906759  0.76900777     0.05700
C612        C  0.66486549  0.49094131  0.73083951    -0.10500
C613        C  0.63487296  0.98745698  0.71431338     0.03200
C614        C  0.61448679  0.98467271  0.75096768    -0.09000
C615        C  0.62976290  0.98244259  0.79025757     0.05700
C616        C  0.66365221  0.48865964  0.80718511    -0.08400
H617        H  0.67837250  0.49014338  0.70086664     0.11300
H618        H  0.58666048  0.98414748  0.74891750     0.08800
H619        H  0.67683361  0.48699325  0.83683218     0.08600
C620        C  0.78076926  0.49391085  0.74037291     0.05700
C621        C  0.79827577  0.49579754  0.77875184    -0.10500
C622        C  0.83426802  0.49528190  0.77920609     0.03200
C623        C  0.85309625  0.49308075  0.74147256    -0.09000
C624        C  0.83618997  0.49140114  0.70313192     0.05700
C625        C  0.80012388  0.49196378  0.70257562    -0.08400
H626        H  0.78432393  0.49841064  0.80824392     0.11300
H627        H  0.88097424  0.49272111  0.74194888     0.08800
H628        H  0.78712443  0.49080808  0.67275813     0.08600
C629        C  0.99853458  0.19170483  0.73428357     0.05700
C630        C  0.99553838  0.17658505  0.77490166    -0.10500
C631        C  0.99646645  0.14062297  0.77991418     0.03200
C632        C  0.00024518  0.11982786  0.74459819    -0.09000
C633        C  0.00350462  0.13464805  0.70451111     0.05700
C634        C  0.00310546  0.17038331  0.69941601    -0.08400
H635        H  0.99299056  0.19243367  0.80251002     0.11300
H636        H  0.00038893  0.09203593  0.74828196     0.08800
H637        H  0.00540529  0.18156802  0.66807916     0.08600
C638        C  0.98020046  0.28880232  0.74500419     0.05700
C639        C  0.98160576  0.30426276  0.70453290    -0.10500
C640        C  0.98089292  0.34031782  0.70020535     0.03200
C641        C  0.97894681  0.36077689  0.73607686    -0.09000
C642        C  0.97727575  0.34554881  0.77604981     0.05700
C643        C  0.97764683  0.30978498  0.78045715    -0.08400
H644        H  0.98260527  0.28855598  0.67663933     0.11300
H645        H  0.97859332  0.38859568  0.73287820     0.08800
H646        H  0.97644367  0.29825707  0.81166590     0.08600
O647        O  0.57815279  0.49333962  0.59084661    -0.72800
O648        O  0.53559567  0.49180363  0.64144289    -0.51700
C649        C  0.56728238  0.49308892  0.62935898     0.81000
O650        O  0.98956827  0.09248490  0.92396883    -0.57400
O651        O  0.98737632  0.04952160  0.87544790    -0.50400
C652        C  0.98918995  0.08137318  0.88595497     0.73000
O653        O  0.00324458  0.08236845  0.56742057    -0.71900
O654        O  0.99709289  0.03819728  0.61517583    -0.52500
C655        C  0.00165049  0.07005981  0.60510213     0.79000
O656        O  0.57706215  0.49045913  0.94914133    -0.57100
O657        O  0.53276958  0.49018507  0.90291765    -0.50200
C658        C  0.56490612  0.49027382  0.91178506     0.75600
Zr659      Zr  0.55255275  0.49061832  0.52105100     2.54700
O660        O  0.60632281  0.03291951  0.49737472    -0.77600
O661        O  0.59495444  0.44495020  0.02013870    -0.91000
Zr662      Zr  0.99951847  0.06006049  0.49615879     2.64700
O663        O  0.54291844  0.10421531  0.49742021    -0.96000
O664        O  0.94516774  0.11215991  0.99576877    -0.78100
O665        O  0.52815843  0.02720589  0.54229985    -0.81400
O666        O  0.52322134  0.02395937  0.96173161    -2.16100
O667        O  0.97728343  0.39708199  0.91420510    -0.64800
O668        O  0.97585501  0.44127517  0.86643622    -0.49400
C669        C  0.97604117  0.40926909  0.87652218     0.74000
O670        O  0.88777434  0.48746360  0.56237351    -0.57700
O671        O  0.93201876  0.48745714  0.60871543    -0.49700
C672        C  0.89988693  0.48752510  0.59975200     0.75800
O673        O  0.88373521  0.49583378  0.92038862    -0.69100
O674        O  0.92640009  0.49583536  0.86998763    -0.47800
C675        C  0.89473657  0.49635857  0.88190199     0.77200
O676        O  0.98062392  0.38962705  0.55685961    -0.64400
O677        O  0.98371573  0.43247151  0.60547931    -0.51600
C678        C  0.98211691  0.40061542  0.59485417     0.75500
Zr679      Zr  0.98018500  0.41520247  0.48615722     2.77500
O680        O  0.93271176  0.37312600  0.48683977    -0.95200
O681        O  0.52367551  0.37380589  0.52910893    -0.76000
Zr682      Zr  0.91073216  0.48881403  0.49022810     2.70100
O683        O  0.86546329  0.44441153  0.49059488    -0.77300
O684        O  0.88184597  0.04566013  0.50128762    -0.96300
Zr685      Zr  0.98493906  0.48675132  0.56675771     2.21500
Zr686      Zr  0.97989208  0.49326337  0.90675614     2.11100
O687        O  0.94211038  0.45670562  0.94777571    -2.45000
O688        O  0.94578325  0.45105062  0.52902505    -0.77000
O689        O  0.51675863  0.45387229  0.98329714    -0.69200
O690        O  0.95808681  0.02770946  0.53694574    -2.30200
O691        O  0.51732087  0.45365280  0.56432982    -2.26400
O692        O  0.94911333  0.03311622  0.95493792    -0.71000
H693        H  0.53854438  0.03661657  0.94268290     0.81000
H694        H  0.94596522  0.04276415  0.55578355     0.82100
H695        H  0.92704296  0.44331146  0.93020025     0.84300
H696        H  0.53145756  0.43995107  0.58231091     0.81900
H697        H  0.94514822  0.10381160  0.52140865     0.44900
H698        H  0.87522348  0.05689695  0.97079775     0.43900
H699        H  0.87416289  0.42592504  0.50889730     0.43600
H700        H  0.91601649  0.38436759  0.96382065     0.41500
H701        H  0.54239007  0.38384041  0.00691624     0.44700
H702        H  0.59025455  0.43239449  0.54762328     0.39400
H703        H  0.59801913  0.05143377  0.51586291     0.45600
H704        H  0.55168603  0.09769074  0.97200217     0.42000
H705        H  0.94379753  0.35085646  0.48165977     0.46900
H706        H  0.61633039  0.45612303  0.52195014     0.45600
H707        H  0.53253970  0.12723842  0.49746431     0.45800
H708        H  0.85955501  0.03789732  0.48969751     0.46100
C709        C  0.97566166  0.36674173  0.81269214    -0.10700
C710        C  0.97523124  0.38534732  0.84268114    -0.12300
C711        C  0.98202001  0.37542604  0.62843642    -0.10700
C712        C  0.98175208  0.35715607  0.65945822    -0.12300
C713        C  0.99337809  0.12422398  0.82082985    -0.10700
C714        C  0.99123674  0.10634200  0.85214734    -0.12300
C715        C  0.00525290  0.11293763  0.66837912    -0.10700
C716        C  0.00458643  0.09386105  0.63886734    -0.12300
C717        C  0.98061262  0.25098888  0.75206720    -0.13900
C718        C  0.99739898  0.22946379  0.72659134    -0.29100
H719        H  0.96775265  0.24091552  0.78033121     0.15100
H720        H  0.50156335  0.24339326  0.72084495     0.15700
C721        C  0.86997347  0.49711551  0.84905499    -0.10700
C722        C  0.85227755  0.49677062  0.81832764    -0.13200
C723        C  0.87552437  0.48813256  0.63438311    -0.10700
C724        C  0.85635818  0.48936062  0.66466668    -0.12300
C725        C  0.60790728  0.49038923  0.84624263    -0.10700
C726        C  0.58913689  0.49029876  0.87697818    -0.12300
C727        C  0.61050027  0.49397593  0.69222596    -0.10700
C728        C  0.59231788  0.49403508  0.66192902    -0.12300
C729        C  0.72091605  0.48664587  0.77052285    -0.13900
C730        C  0.74258415  0.49552846  0.73828801    -0.29100
H731        H  0.73140643  0.47751804  0.79982556     0.15100
H732        H  0.73869978  0.01157182  0.70665057     0.15700
C733        C  0.68751767  0.98284391  0.24290934     0.05700
C734        C  0.66692082  0.98233790  0.20713583    -0.10500
C735        C  0.62901128  0.49479099  0.23156541     0.03200
C736        C  0.61023834  0.49219203  0.26942214    -0.09000
C737        C  0.62715978  0.49266912  0.30777707     0.05700
C738        C  0.67142802  0.98256675  0.28323334    -0.08400
H739        H  0.67883977  0.98244804  0.17603225     0.11300
H740        H  0.58235900  0.49037169  0.26903593     0.08800
H741        H  0.68660779  0.98204141  0.31138408     0.08600
C742        C  0.78593299  0.99688148  0.25706903     0.05700
C743        C  0.80664573  0.99910310  0.29265613    -0.10500
C744        C  0.84249920  0.00048911  0.28848460     0.03200
C745        C  0.85809530  0.99985873  0.24852572    -0.09000
C746        C  0.83794831  0.99775344  0.21257368     0.05700
C747        C  0.80188800  0.99638605  0.21674205    -0.08400
H748        H  0.79481858  0.99944295  0.32379427     0.11300
H749        H  0.88593293  0.00083924  0.24542136     0.08800
H750        H  0.78665633  0.99556647  0.18864750     0.08600
C751        C  0.98504346  0.69197948  0.23183049     0.05700
C752        C  0.98271373  0.67500249  0.27154069    -0.10500
C753        C  0.98249726  0.63870191  0.27402067     0.03200
C754        C  0.98433884  0.61963488  0.23698384    -0.09000
C755        C  0.98704444  0.63635334  0.19790962     0.05700
C756        C  0.98757812  0.67220043  0.19540122    -0.08400
H757        H  0.98190197  0.68964908  0.30027729     0.11300
H758        H  0.98407009  0.59172077  0.23858004     0.08800
H759        H  0.98966206  0.68476951  0.16481622     0.08600
C760        C  0.97321143  0.78988945  0.24849006     0.05700
C761        C  0.97477572  0.80707517  0.20891331    -0.10500
C762        C  0.97543892  0.84339456  0.20687724     0.03200
C763        C  0.97522496  0.86224242  0.24409477    -0.09000
C764        C  0.97391893  0.84531300  0.28303118     0.05700
C765        C  0.97235123  0.80946178  0.28519848    -0.08400
H766        H  0.97470848  0.79257578  0.18004029     0.11300
H767        H  0.97619781  0.89017055  0.24277252     0.08800
H768        H  0.97123230  0.79671524  0.31571098     0.08600
O769        O  0.57861445  0.98484576  0.07323760    -0.72800
O770        O  0.53523396  0.98748857  0.12249471    -0.51700
C771        C  0.56702419  0.98560972  0.11140082     0.81000
O772        O  0.98412877  0.58637557  0.41583028    -0.57400
O773        O  0.98073064  0.54352231  0.36729902    -0.50400
C774        C  0.98207594  0.57546941  0.37783444     0.73000
O775        O  0.98863630  0.58754530  0.05758963    -0.71900
O776        O  0.98731437  0.54333749  0.10562427    -0.52500
C777        C  0.98874672  0.57531005  0.09536067     0.79000
O778        O  0.58567143  0.98388460  0.43068590    -0.57100
O779        O  0.54258478  0.98639587  0.38295036    -0.50200
C780        C  0.57439220  0.98418870  0.39286921     0.75600
Zr781      Zr  0.55471453  0.98458799  0.00249521     2.54700
O782        O  0.59904367  0.53563745  0.01611291    -0.77600
O783        O  0.60177167  0.94150517  0.50431319    -0.91000
Zr784      Zr  0.98546663  0.56482972  0.98621521     2.64700
O785        O  0.53091708  0.60434541  0.01972052    -0.96000
O786        O  0.94224131  0.60371842  0.48892173    -0.78100
O787        O  0.51950187  0.52829375  0.06249060    -0.81400
O788        O  0.51628319  0.52642371  0.48157958    -2.16100
O789        O  0.97921401  0.89324484  0.42347210    -0.64800
O790        O  0.98401084  0.93764484  0.37592006    -0.49400
C791        C  0.98051419  0.90571103  0.38583188     0.74000
O792        O  0.88586171  0.99678524  0.06771157    -0.57700
O793        O  0.92889894  0.99498272  0.11559552    -0.49700
C794        C  0.89708242  0.99596464  0.10557526     0.75800
O795        O  0.89432821  0.99983309  0.42667162    -0.69100
O796        O  0.93777648  0.99537170  0.37782387    -0.47800
C797        C  0.90610456  0.99888669  0.38862166     0.77200
O798        O  0.97772698  0.89669041  0.06603029    -0.64400
O799        O  0.97874452  0.93943774  0.11488268    -0.51600
C800        C  0.97763688  0.90754429  0.10414260     0.75500
Zr801      Zr  0.97902843  0.92241903  0.99539253     2.77500
O802        O  0.92938170  0.88296694  0.99720702    -0.95200
O803        O  0.51502979  0.87110339  0.00952813    -0.76000
Zr804      Zr  0.91101451  0.99721185  0.99628490     2.70100
O805        O  0.86578504  0.95277223  0.99709809    -0.77300
O806        O  0.86898975  0.54083238  0.99462723    -0.96300
Zr807      Zr  0.98267060  0.99388122  0.07596638     2.21500
Zr808      Zr  0.99014395  0.98906147  0.41660282     2.11100
O809        O  0.94863463  0.95547600  0.45598053    -2.45000
O810        O  0.94420091  0.95893698  0.03662018    -0.77000
O811        O  0.52320778  0.95230079  0.46359439    -0.69200
O812        O  0.94789538  0.52940162  0.02867090    -2.30200
O813        O  0.51531919  0.95115991  0.04478054    -2.26400
O814        O  0.94684895  0.52562035  0.44771901    -0.71000
H815        H  0.53007909  0.54053128  0.46233240     0.81000
H816        H  0.93496406  0.54351020  0.04785683     0.82100
H817        H  0.93306977  0.94338979  0.43770208     0.84300
H818        H  0.52782242  0.93622319  0.06324024     0.81900
H819        H  0.92654778  0.60374813  0.96665897     0.44900
H820        H  0.87903046  0.55288770  0.47425978     0.43900
H821        H  0.87496498  0.93394709  0.01447864     0.43600
H822        H  0.91642544  0.88444869  0.47208127     0.41500
H823        H  0.54630480  0.88390811  0.49198506     0.44700
H824        H  0.58891112  0.92467376  0.03093923     0.39400
H825        H  0.58981895  0.55515175  0.03221530     0.45600
H826        H  0.53998918  0.60087169  0.49318818     0.42000
H827        H  0.93897555  0.86018963  0.99080669     0.46900
H828        H  0.61654333  0.94688251  0.00564050     0.45600
H829        H  0.52019080  0.62711387  0.01735240     0.45800
H830        H  0.84635160  0.52998129  0.98853186     0.46100
C831        C  0.97535935  0.86481860  0.32095207    -0.10700
C832        C  0.97756727  0.88231544  0.35174182    -0.12300
C833        C  0.97659393  0.88195633  0.13748902    -0.10700
C834        C  0.97610134  0.86228402  0.16732644    -0.12300
C835        C  0.98144517  0.62016809  0.31394176    -0.10700
C836        C  0.98144477  0.60093947  0.34426822    -0.12300
C837        C  0.98910455  0.61665332  0.16012451    -0.10700
C838        C  0.98978872  0.59904285  0.12929701    -0.12300
C839        C  0.97174614  0.75176706  0.25370888    -0.13900
C840        C  0.98606483  0.73010993  0.22629608    -0.29100
H841        H  0.95954294  0.74139716  0.28224213     0.15100
H842        H  0.49356809  0.73972900  0.30842574     0.15700
C843        C  0.88201705  0.00124036  0.35519524    -0.10700
C844        C  0.86341015  0.00162684  0.32532496    -0.13200
C845        C  0.87238110  0.99637067  0.13990869    -0.10700
C846        C  0.85485893  0.99693593  0.17171338    -0.12300
C847        C  0.61781726  0.98196272  0.32773748    -0.10700
C848        C  0.59928339  0.98243425  0.35873976    -0.12300
C849        C  0.61019860  0.98301816  0.17425469    -0.10700
C850        C  0.59140755  0.98410094  0.14459416    -0.12300
C851        C  0.72552168  0.98293006  0.23628765    -0.13900
C852        C  0.74792325  0.99619305  0.26382419    -0.29100
H853        H  0.73510059  0.97254361  0.20690532     0.15100
H854        H  0.73082259  0.47957318  0.21106138     0.15700
C855        C  0.68659702  0.98640733  0.75719694     0.05700
C856        C  0.67103045  0.98840952  0.71729000    -0.10500
C857        C  0.62893408  0.49284210  0.73105879     0.03200
C858        C  0.61046785  0.49270980  0.76921097    -0.09000
C859        C  0.62766245  0.49061531  0.80730528     0.05700
C860        C  0.66550039  0.98311021  0.79328979    -0.08400
H861        H  0.68659271  0.98997123  0.68874973     0.11300
H862        H  0.58262958  0.49400125  0.76923838     0.08800
H863        H  0.67695275  0.98145651  0.82404955     0.08600
C864        C  0.78542959  0.99970834  0.74174986     0.05700
C865        C  0.80110038  0.99990639  0.78165869    -0.10500
C866        C  0.83727303  0.99972292  0.78441867     0.03200
C867        C  0.85747802  0.99916403  0.74762861    -0.09000
C868        C  0.84205884  0.99883038  0.70838276     0.05700
C869        C  0.80635771  0.99942178  0.70543894    -0.08400
H870        H  0.78556796  0.00077787  0.81020517     0.11300
H871        H  0.88529854  0.99879507  0.74953425     0.08800
H872        H  0.79478527  0.99914129  0.67467914     0.08600
C873        C  0.98708306  0.69182817  0.73077595     0.05700
C874        C  0.98627580  0.67449370  0.77000978    -0.10500
C875        C  0.98615410  0.63843990  0.77188435     0.03200
C876        C  0.98717805  0.61943427  0.73480886    -0.09000
C877        C  0.98825313  0.63622497  0.69573895     0.05700
C878        C  0.98825960  0.67228018  0.69373402    -0.08400
H879        H  0.98630629  0.68857227  0.79914968     0.11300
H880        H  0.98710641  0.59152240  0.73636866     0.08800
H881        H  0.98899772  0.68512014  0.66329795     0.08600
C882        C  0.97747246  0.78971674  0.75264732     0.05700
C883        C  0.97605141  0.80615861  0.71294475    -0.10500
C884        C  0.97529251  0.84213061  0.70990157     0.03200
C885        C  0.97559406  0.86195699  0.74635693    -0.09000
C886        C  0.97670995  0.84602930  0.78590107     0.05700
C887        C  0.97754705  0.81005157  0.78902577    -0.08400
H888        H  0.97491305  0.79139606  0.68435245     0.11300
H889        H  0.97508254  0.88981423  0.74393376     0.08800
H890        H  0.97845612  0.79789106  0.81979953     0.08600
O891        O  0.58590980  0.98932735  0.57248719    -0.72800
O892        O  0.54250443  0.99075081  0.62186691    -0.51700
C893        C  0.57448024  0.98989957  0.61073897     0.81000
O894        O  0.98407285  0.58969227  0.91505851    -0.57400
O895        O  0.98155207  0.54646278  0.86698866    -0.50400
C896        C  0.98295001  0.57830421  0.87720782     0.73000
O897        O  0.98826918  0.58393201  0.55699451    -0.71900
O898        O  0.98767173  0.54016435  0.60564558    -0.52500
C899        C  0.98847268  0.57219387  0.59496137     0.79000
O900        O  0.57784578  0.98080693  0.93053037    -0.57100
O901        O  0.53459101  0.98503151  0.88325641    -0.50200
C902        C  0.56618873  0.98185627  0.89292379     0.75600
Zr903      Zr  0.56128879  0.98830301  0.50207610     2.54700
O904        O  0.59682814  0.53592086  0.51630611    -0.77600
O905        O  0.59330012  0.93617425  0.00336865    -0.91000
Zr906      Zr  0.98613466  0.56021201  0.48619555     2.64700
O907        O  0.52828692  0.60440345  0.52065147    -0.96000
O908        O  0.94310843  0.60991767  0.98877945    -0.78100
O909        O  0.51828308  0.52739696  0.56274779    -0.81400
O910        O  0.51788887  0.52731138  0.98151730    -2.16100
O911        O  0.97897913  0.89874196  0.92430591    -0.64800
O912        O  0.98063603  0.94246220  0.87556817    -0.49400
C913        C  0.97936663  0.91047884  0.88628247     0.74000
O914        O  0.89403186  0.99477801  0.56880458    -0.57700
O915        O  0.93735600  0.99103904  0.61600877    -0.49700
C916        C  0.90568796  0.99355318  0.60633982     0.75800
O917        O  0.88703980  0.99838933  0.92550296    -0.69100
O918        O  0.93048001  0.99811865  0.87606715    -0.47800
C919        C  0.89849671  0.99870428  0.88723575     0.77200
O920        O  0.97657903  0.89007213  0.56596576    -0.64400
O921        O  0.98276206  0.93284929  0.61416297    -0.51600
C922        C  0.97835813  0.90121596  0.60385605     0.75500
Zr923      Zr  0.98056320  0.91537662  0.49516295     2.77500
O924        O  0.93071268  0.87621586  0.49537743    -0.95200
O925        O  0.52661895  0.87449260  0.50902324    -0.76000
Zr926      Zr  0.91792077  0.99541752  0.49723628     2.70100
O927        O  0.86838418  0.95586793  0.49742037    -0.77300
O928        O  0.87056546  0.53574513  0.49550600    -0.96300
Zr929      Zr  0.98953311  0.98630535  0.57497287     2.21500
Zr930      Zr  0.98391092  0.99558585  0.91455953     2.11100
O931        O  0.94490038  0.95978173  0.95511836    -2.45000
O932        O  0.94831162  0.95412904  0.53649880    -0.77000
O933        O  0.51515365  0.95038387  0.96406008    -0.69200
O934        O  0.94903974  0.52437846  0.52870406    -2.30200
O935        O  0.52288712  0.95388223  0.54473955    -2.26400
O936        O  0.94581438  0.53048256  0.94803296    -0.71000
H937        H  0.53181739  0.54124060  0.96218987     0.81000
H938        H  0.93587526  0.53845181  0.54770396     0.82100
H939        H  0.93016100  0.94637311  0.93713705     0.84300
H940        H  0.53580689  0.93943735  0.56332760     0.81900
H941        H  0.92349790  0.59329661  0.50668095     0.44900
H942        H  0.87456371  0.55547360  0.96964430     0.43900
H943        H  0.87718473  0.93446296  0.48504589     0.43600
H944        H  0.91614052  0.88899217  0.97203397     0.41500
H945        H  0.53665576  0.88090740  0.99697231     0.44700
H946        H  0.59309406  0.92616942  0.52741352     0.39400
H947        H  0.58799839  0.55444734  0.53439997     0.45600
H948        H  0.54203522  0.60085031  0.99189160     0.42000
H949        H  0.93983806  0.85414286  0.48531794     0.46900
H950        H  0.62320807  0.95208939  0.51514708     0.45600
H951        H  0.51697478  0.62682347  0.51758037     0.45800
H952        H  0.84888984  0.52633555  0.48390423     0.46100
C953        C  0.97736777  0.86690363  0.82310638    -0.10700
C954        C  0.97819733  0.88595629  0.85281867    -0.12300
C955        C  0.97571994  0.87661148  0.63783042    -0.10700
C956        C  0.97486243  0.85918715  0.66946553    -0.12300
C957        C  0.98488327  0.62050907  0.81175672    -0.10700
C958        C  0.98377713  0.60283112  0.84315613    -0.12300
C959        C  0.98903805  0.61601309  0.65796652    -0.10700
C960        C  0.98918412  0.59685200  0.62832734    -0.12300
C961        C  0.97767323  0.75153682  0.75758832    -0.13900
C962        C  0.98759865  0.73008534  0.72678360    -0.29100
H963        H  0.96932841  0.74109916  0.78791962     0.15100
H964        H  0.49383953  0.74068247  0.80757402     0.15700
C965        C  0.87354267  0.99953314  0.85417438    -0.10700
C966        C  0.85469844  0.99983279  0.82427565    -0.13200
C967        C  0.88156944  0.99546923  0.64052072    -0.10700
C968        C  0.86300083  0.99721825  0.67097757    -0.12300
C969        C  0.60870601  0.98031964  0.82776913    -0.10700
C970        C  0.59027856  0.98005783  0.85856844    -0.12300
C971        C  0.61775854  0.98882933  0.67424982    -0.10700
C972        C  0.59934214  0.98944773  0.64394479    -0.12300
C973        C  0.72450465  0.98658164  0.76334346    -0.13900
C974        C  0.74757919  0.00044358  0.73579944    -0.29100
H975        H  0.73361283  0.97535828  0.79235200     0.15100
H976        H  0.73233723  0.50442357  0.70879090     0.15700
loop_ 
_geom_bond_atom_site_label_1 
_geom_bond_atom_site_label_2 
_geom_bond_distance 
_geom_bond_site_symmetry_2 
_ccdc_geom_bond_type 
C1            C2   1.417       .  A
C1            C6   1.406       .  A
C1          C119   1.495       .  S
C2          C247   1.410       .  A
C2            H7   1.084       .  S
C3            C4   1.398       .  A
C3          C246   1.403       .  A
C3          C361   1.445       .  S
C4            C5   1.398       .  A
C4            H8   1.085       .  S
C5          C250   1.399       .  A
C5          C359   1.437       .  S
C6          C249   1.395       .  A
C6            H9   1.081       .  S
C10          C11   1.417       .  A
C10          C15   1.407       .  A
C10         C120   1.495       .  S
C11          C12   1.410       .  A
C11          H16   1.084       .  S
C12          C13   1.399       .  A
C12         C112   1.453       .  S
C13          C14   1.397       .  A
C13          H17   1.085       .  S
C14          C15   1.396       .  A
C14         C114   1.437       .  S
C15          H18   1.081       .  S
C19          C20   1.413       .  A
C19          C24   1.405       .  A
C19         C108   1.488       .  S
C20          C21   1.403       .  A
C20          H25   1.082       .  S
C21          C22   1.397       .  A
C21         C103   1.440       .  S
C22          C23   1.396       .  A
C22          H26   1.085       .  S
C23          C24   1.399       .  A
C23         C105   1.436       .  S
C24          H27   1.084       .  S
C28          C29   1.414       .  A
C28          C33   1.405       .  A
C28         C107   1.487       .  S
C29          C30   1.404       .  A
C29          H34   1.082       .  S
C30          C31   1.397       .  A
C30         C102   1.442       .  S
C31          C32   1.397       .  A
C31          H35   1.085       .  S
C32          C33   1.397       .  A
C32          C99   1.436       .  S
C33          H36   1.085       .  S
O37         Zr49   2.456   1_554  S
O37          C39   1.288       .  A
O38        Zr563   2.434   1_455  S
O38          C39   1.287       .  A
C39         C118   1.446       .  S
O40        Zr174   2.445       .  S
O40          C42   1.287       .  A
O41        Zr320   2.419   1_545  S
O41          C42   1.285       .  A
C42         C104   1.434       .  S
O43         Zr52   2.444       .  S
O43          C45   1.286       .  A
O44        Zr319   2.413   1_545  S
O44          C45   1.283       .  A
C45         C106   1.431       .  S
O46        Zr171   2.447       .  S
O46          C48   1.288       .  A
O47        Zr564   2.406   1_455  S
O47          C48   1.282       .  A
C48         C116   1.427       .  S
Zr49        O168   2.446       .  S
Zr49         O81   2.373   1_556  S
Zr49        O299   2.374   1_556  S
Zr49        O422   2.376       .  S
Zr49        O201   2.376       .  S
Zr49        O294   2.435       .  S
Zr49        O173   2.435       .  S
O50        Zr293   2.435   1_545  S
O50          H93   0.990   1_556  S
O51        Zr171   2.436       .  S
O51         H214   0.990       .  S
O51         H218   0.990       .  S
Zr52        O162   2.446   1_554  S
Zr52         O80   2.373       .  S
Zr52        O666   2.373   1_554  S
Zr52        O543   2.374       .  S
Zr52        O204   2.375   1_554  S
Zr52        O541   2.435       .  S
Zr52        O176   2.434       .  S
O53        Zr540   2.435   1_455  S
O53          H97   0.990       .  S
O53         H216   0.990       .  S
O54        Zr174   2.435       .  S
O54         H209   0.990       .  S
O55        Zr293   2.373   1_544  S
O55        Zr540   2.375   1_454  S
O55        Zr807   2.381   1_445  S
O56        Zr415   2.374   1_545  S
O56        Zr662   2.369   1_455  S
O56        Zr808   2.377   1_445  S
O56          H83   0.964       .  S
O57        Zr191   2.446       .  S
O57          C59   1.287       .  A
O58         Zr76   2.411       .  S
O58          C59   1.283       .  A
C59         C100   1.430       .  S
O60         Zr72   2.449       .  S
O60          C62   1.288       .  A
O61         Zr75   2.411       .  S
O61          C62   1.282       .  A
C62         C113   1.431       .  S
O63        Zr194   2.455       .  S
O63          C65   1.289       .  A
O64         Zr76   2.441       .  S
O64          C65   1.288       .  A
C65         C111   1.449       .  S
O66         Zr69   2.448       .  S
O66          C68   1.287       .  A
O67         Zr75   2.424       .  S
O67          C68   1.285       .  A
C68         C101   1.437       .  S
Zr69        O179   2.447   1_554  S
Zr69         O78   2.374       .  S
Zr69        O199   2.375   1_554  S
Zr69        O569   2.374       .  S
Zr69        O689   2.374   1_554  S
Zr69         O70   2.435       .  S
Zr69        O559   2.434       .  S
O70          H95   0.990       .  S
O70         H212   0.990       .  S
O71        Zr557   2.433   1_455  S
O71         H213   0.990       .  S
Zr72        O185   2.454   1_554  S
Zr72         O78   2.376       .  S
Zr72        O199   2.373   1_554  S
Zr72        O448   2.375   1_554  S
Zr72        O324   2.373       .  S
Zr72         O73   2.434       .  S
Zr72        O318   2.434       .  S
O73          H89   0.990       .  S
O74        Zr316   2.434   1_545  S
O74          H98   0.990       .  S
O74         H210   0.990   1_554  S
Zr75        O526   2.411       .  S
Zr75        O288   2.427       .  S
Zr75         O78   2.380       .  S
Zr75        O787   2.379       .  S
Zr75        O324   2.381       .  S
Zr75        O569   2.383       .  S
Zr76        O285   2.407       .  S
Zr76        O535   2.432       .  S
Zr76         O77   2.380       .  S
Zr76        O788   2.384       .  S
Zr76        O567   2.381       .  S
Zr76        O326   2.377       .  S
O77        Zr191   2.376       .  S
O77        Zr194   2.373       .  S
O77          H85   0.966       .  S
O79        Zr171   2.373       .  S
O79        Zr679   2.373   1_455  S
O79        Zr564   2.382   1_455  S
O80        Zr316   2.372   1_545  S
O80        Zr319   2.379   1_545  S
O80          H84   0.967       .  S
O81        Zr557   2.376   1_454  S
O81        Zr563   2.381   1_455  S
O81          H86   0.968       .  S
O82        Zr174   2.374       .  S
O82        Zr438   2.371   1_545  S
O82        Zr320   2.382   1_545  S
H87         O176   0.990       .  S
H88         O196   0.990       .  S
H90         O192   0.990       .  S
H91         O193   0.990       .  S
H92         O173   0.990   1_554  S
H94         O175   0.990       .  S
H96         O173   0.990       .  S
C99         C100   1.203       .  T
C101        C102   1.207       .  T
C103        C104   1.205       .  T
C105        C106   1.204       .  T
C107        C108   1.346       .  D
C107        H109   1.084       .  S
C108        H598   1.085       .  S
H110        C596   1.086   1_455  S
C111        C112   1.214       .  T
C113        C114   1.204       .  T
C115        C249   1.433       .  S
C115        C116   1.201       .  T
C117        C247   1.450       .  S
C117        C118   1.213       .  T
C119        C120   1.360       .  D
C119        H121   1.083       .  S
C120        H366   1.083       .  S
H122        C364   1.084   1_545  S
C123        C124   1.417       .  A
C123        C128   1.409       .  A
C123        C241   1.497       .  S
C124        C369   1.409       .  A
C124        H129   1.084       .  S
C125        C368   1.393       .  A
C125        C126   1.397       .  A
C125        C483   1.432       .  S
C126        C127   1.399       .  A
C126        H130   1.085       .  S
C127        C372   1.410       .  A
C127        C481   1.450       .  S
C128        C371   1.398       .  A
C128        H131   1.081       .  S
C132        C133   1.417       .  A
C132        C137   1.407       .  A
C132        C242   1.496       .  S
C133        C134   1.410       .  A
C133        H138   1.084       .  S
C134        C135   1.398       .  A
C134        C234   1.452       .  S
C135        C136   1.397       .  A
C135        H139   1.085       .  S
C136        C137   1.396       .  A
C136        C236   1.435       .  S
C137        H140   1.081       .  S
C141        C142   1.414       .  A
C141        C146   1.407       .  A
C141        C230   1.489       .  S
C142        C143   1.403       .  A
C142        H147   1.081       .  S
C143        C144   1.399       .  A
C143        C225   1.444       .  S
C144        C145   1.399       .  A
C144        H148   1.085       .  S
C145        C146   1.399       .  A
C145        C227   1.442       .  S
C146        H149   1.084       .  S
C150        C151   1.413       .  A
C150        C155   1.405       .  A
C150        C229   1.487       .  S
C151        C152   1.403       .  A
C151        H156   1.082       .  S
C152        C153   1.398       .  A
C152        C224   1.442       .  S
C153        C154   1.398       .  A
C153        H157   1.085       .  S
C154        C155   1.398       .  A
C154        C221   1.436       .  S
C155        H158   1.085       .  S
O159       Zr171   2.459       .  S
O159        C161   1.290       .  A
O160       Zr685   2.433   1_455  S
O160        C161   1.287       .  A
C161        C240   1.446       .  S
O162        C164   1.287       .  A
O163       Zr442   2.428   1_545  S
O163        C164   1.286       .  A
C164        C226   1.439       .  S
O165       Zr174   2.457       .  S
O165        C167   1.289       .  A
O166       Zr441   2.413   1_545  S
O166        C167   1.283       .  A
C167        C228   1.437       .  S
O168        C170   1.287       .  A
O169       Zr686   2.412   1_455  S
O169        C170   1.283       .  A
C170        C238   1.431       .  S
Zr171       O421   2.374       .  S
Zr171       O300   2.378       .  S
Zr171       O203   2.374       .  S
Zr171       O416   2.434       .  S
O172       Zr415   2.434   1_545  S
O172        H215   0.990       .  S
Zr174       O544   2.381       .  S
Zr174       O665   2.373       .  S
Zr174       O202   2.374       .  S
Zr174       O663   2.436       .  S
O175       Zr662   2.437   1_455  S
O175        H219   0.990       .  S
O177       Zr415   2.371   1_545  S
O177       Zr662   2.374   1_455  S
O177       Zr929   2.376   1_445  S
O178       Zr293   2.375   1_545  S
O178       Zr540   2.377   1_455  S
O178       Zr930   2.384   1_445  S
O178        H205   0.965       .  S
O179        C181   1.287       .  A
O180       Zr198   2.409       .  S
O180        C181   1.282       .  A
C181        C222   1.430       .  S
O182       Zr194   2.448       .  S
O182        C184   1.288       .  A
O183       Zr197   2.404       .  S
O183        C184   1.281       .  A
C184        C235   1.428       .  S
O185        C187   1.288       .  A
O186       Zr198   2.438       .  S
O186        C187   1.288       .  A
C187        C233   1.448       .  S
O188       Zr191   2.448       .  S
O188        C190   1.288       .  A
O189       Zr197   2.423       .  S
O189        C190   1.285       .  A
C190        C223   1.437       .  S
Zr191       O200   2.371       .  S
Zr191       O691   2.375       .  S
Zr191       O567   2.374       .  S
Zr191       O192   2.436       .  S
Zr191       O681   2.435       .  S
O192        H217   0.990       .  S
O193       Zr679   2.434   1_455  S
Zr194       O200   2.373       .  S
Zr194       O326   2.372       .  S
Zr194       O446   2.375       .  S
Zr194       O195   2.433       .  S
Zr194       O440   2.433       .  S
O195        H211   0.990       .  S
O196       Zr438   2.436   1_545  S
O196        H220   0.990       .  S
Zr197       O648   2.415       .  S
Zr197       O410   2.435       .  S
Zr197       O909   2.376       .  S
Zr197       O200   2.380       .  S
Zr197       O446   2.381       .  S
Zr197       O691   2.382       .  S
Zr198       O407   2.406       .  S
Zr198       O657   2.431       .  S
Zr198       O910   2.383       .  S
Zr198       O199   2.382       .  S
Zr198       O689   2.380       .  S
Zr198       O448   2.379       .  S
O199        H207   0.966       .  S
O201       Zr557   2.372   1_455  S
O201       Zr686   2.378   1_455  S
O202       Zr438   2.374   1_545  S
O202       Zr441   2.383   1_545  S
O202        H206   0.968       .  S
O203       Zr679   2.375   1_455  S
O203       Zr685   2.384   1_455  S
O203        H208   0.967       .  S
O204       Zr316   2.374   1_546  S
O204       Zr442   2.377   1_545  S
C221        C222   1.204       .  T
C223        C224   1.207       .  T
C225        C226   1.208       .  T
C227        C228   1.207       .  T
C229        C230   1.347       .  D
C229        H231   1.084       .  S
C230        H720   1.085       .  S
H232        C718   1.086   1_455  S
C233        C234   1.214       .  T
C235        C236   1.202       .  T
C237        C371   1.437       .  S
C237        C238   1.204       .  T
C239        C369   1.451       .  S
C239        C240   1.213       .  T
C241        C242   1.359       .  D
C241        H243   1.083       .  S
C242        H488   1.082       .  S
H244        C486   1.086   1_545  S
C245        C246   1.410       .  A
C245        C250   1.410       .  A
C245        C363   1.487       .  S
C246        H251   1.084       .  S
C247        C248   1.398       .  A
C248        C249   1.396       .  A
C248        H252   1.085       .  S
C250        H253   1.082       .  S
C254        C255   1.409       .  A
C254        C259   1.410       .  A
C254        C364   1.488       .  S
C255        C256   1.402       .  A
C255        H260   1.084       .  S
C256        C257   1.397       .  A
C256        C356   1.441       .  S
C257        C258   1.397       .  A
C257        H261   1.085       .  S
C258        C259   1.399       .  A
C258        C358   1.438   1_565  S
C259        H262   1.081   1_565  S
C263        C264   1.402       .  A
C263        C268   1.415       .  A
C263        C352   1.485       .  S
C264        C265   1.395       .  A
C264        H269   1.085       .  S
C265        C266   1.398       .  A
C265        C347   1.434       .  S
C266        C267   1.399       .  A
C266        H270   1.085       .  S
C267        C268   1.406       .  A
C267        C349   1.446       .  S
C268        H271   1.082       .  S
C272        C273   1.403       .  A
C272        C277   1.416       .  A
C272        C351   1.487       .  S
C273        C274   1.396       .  A
C273        H278   1.085       .  S
C274        C275   1.398       .  A
C274        C346   1.437       .  S
C275        C276   1.399       .  A
C275        H279   1.085       .  S
C276        C277   1.405       .  A
C276        C343   1.446       .  S
C277        H280   1.082       .  S
O281       Zr293   2.454   1_554  S
O281        C283   1.289       .  A
O282       Zr807   2.426   1_455  S
O282        C283   1.286       .  A
C283        C362   1.441       .  S
O284       Zr418   2.445       .  S
O284        C286   1.287       .  A
O285        C286   1.282       .  A
C286        C348   1.428       .  S
O287       Zr296   2.455       .  S
O287        C289   1.289       .  A
O288        C289   1.286       .  A
C289        C350   1.442       .  S
O290       Zr415   2.443       .  S
O290        C292   1.287       .  A
O291       Zr808   2.414   1_455  S
O291        C292   1.283       .  A
C292        C360   1.431       .  S
Zr293       O412   2.451       .  S
Zr293       O445   2.374       .  S
Zr293       O325   2.375   1_556  S
Zr293       O417   2.436       .  S
O294        H337   0.990   1_556  S
O295       Zr415   2.434       .  S
O295        H458   0.990       .  S
O295        H462   0.990       .  S
Zr296       O406   2.453   1_554  S
Zr296       O910   2.373   1_554  S
Zr296       O787   2.374       .  S
Zr296       O324   2.375       .  S
Zr296       O448   2.377   1_554  S
Zr296       O785   2.436       .  S
Zr296       O420   2.434       .  S
O297       Zr784   2.434   1_455  S
O297        H460   0.990       .  S
O297        H341   0.990       .  S
O298       Zr418   2.434       .  S
O298        H453   0.990       .  S
O299       Zr784   2.375   1_454  S
O299       Zr563   2.376   1_455  S
O300       Zr906   2.373   1_455  S
O300       Zr564   2.385   1_455  S
O300        H327   0.964       .  S
O301       Zr435   2.453       .  S
O301        C303   1.288       .  A
O302       Zr320   2.428       .  S
O302        C303   1.286       .  A
C303        C344   1.441       .  S
O304       Zr316   2.448       .  S
O304        C306   1.287       .  A
O305       Zr319   2.416       .  S
O305        C306   1.283       .  A
C306        C357   1.433       .  S
O307       Zr438   2.445       .  S
O307        C309   1.287       .  A
O308       Zr320   2.424       .  S
O308        C309   1.285       .  A
C309        C355   1.436       .  S
O310       Zr313   2.448       .  S
O310        C312   1.288       .  A
O311       Zr319   2.412       .  S
O311        C312   1.283       .  A
C312        C345   1.431       .  S
Zr313       O423   2.448   1_554  S
Zr313       O443   2.374   1_554  S
Zr313       O322   2.375       .  S
Zr313       O813   2.372       .  S
Zr313       O933   2.376   1_554  S
Zr313       O314   2.436       .  S
Zr313       O803   2.434       .  S
O314        H456   0.990   1_554  S
O314        H339   0.990   1_554  S
O315       Zr801   2.434   1_455  S
O315        H457   0.990       .  S
Zr316       O429   2.449   1_554  S
Zr316       O322   2.376       .  S
Zr316       O443   2.372   1_554  S
Zr316       O317   2.434       .  S
O317        H333   0.990       .  S
O318        H454   0.990       .  S
O318        H342   0.990       .  S
Zr319       O770   2.416       .  S
Zr319       O543   2.378   1_565  S
Zr319       O322   2.378       .  S
Zr319       O813   2.381       .  S
Zr320       O779   2.433       .  S
Zr320       O544   2.387   1_565  S
Zr320       O321   2.383       .  S
Zr320       O811   2.378       .  S
O321       Zr435   2.372       .  S
O321       Zr438   2.376       .  S
O321        H329   0.965       .  S
O323       Zr415   2.375       .  S
O323       Zr923   2.374   1_455  S
O323       Zr808   2.378   1_455  S
O324        H328   0.966       .  S
O325       Zr801   2.375   1_454  S
O325       Zr807   2.384   1_455  S
O325        H330   0.968       .  S
O326       Zr418   2.377       .  S
H331        O420   0.990       .  S
H332        O440   0.990       .  S
H334        O436   0.990       .  S
H335        O437   0.990       .  S
H336        O417   0.990   1_554  S
H338        O419   0.990       .  S
H340        O417   0.990       .  S
C343        C344   1.209       .  T
C345        C346   1.204       .  T
C347        C348   1.202       .  T
C349        C350   1.210       .  T
C351        C352   1.343       .  D
C351        H353   1.085       .  S
C352        H842   1.085       .  S
H354        C840   1.086       .  S
C355        C356   1.206       .  T
C357        C358   1.205   1_565  T
C359        C360   1.204       .  T
C361        C362   1.209       .  T
C363        C364   1.350       .  D
C363        H365   1.084       .  S
C367        C368   1.400       .  A
C367        C372   1.418       .  A
C367        C485   1.488       .  S
C368        H373   1.085       .  S
C369        C370   1.398       .  A
C370        C371   1.397       .  A
C370        H374   1.085       .  S
C372        H375   1.082       .  S
C376        C377   1.400   1_565  A
C376        C381   1.419       .  A
C376        C486   1.488       .  S
C377        C378   1.393       .  A
C377        H382   1.085       .  S
C378        C379   1.398   1_545  A
C378        C478   1.434       .  S
C379        C380   1.400       .  A
C379        H383   1.085       .  S
C380        C381   1.411       .  A
C380        C480   1.451       .  S
C381        H384   1.082       .  S
C385        C386   1.404       .  A
C385        C390   1.417       .  A
C385        C474   1.489       .  S
C386        C387   1.397       .  A
C386        H391   1.085       .  S
C387        C388   1.397       .  A
C387        C469   1.436       .  S
C388        C389   1.398       .  A
C388        H392   1.085       .  S
C389        C390   1.407       .  A
C389        C471   1.446       .  S
C390        H393   1.082       .  S
C394        C395   1.403       .  A
C394        C399   1.416       .  A
C394        C473   1.489       .  S
C395        C396   1.397       .  A
C395        H400   1.085       .  S
C396        C397   1.396       .  A
C396        C468   1.435       .  S
C397        C398   1.398       .  A
C397        H401   1.085       .  S
C398        C399   1.406       .  A
C398        C465   1.444       .  S
C399        H402   1.082       .  S
O403       Zr415   2.449       .  S
O403        C405   1.287       .  A
O404       Zr929   2.398   1_455  S
O404        C405   1.280       .  A
C405        C484   1.426       .  S
O406        C408   1.288       .  A
O407        C408   1.282       .  A
C408        C470   1.431       .  S
O409       Zr418   2.448       .  S
O409        C411   1.287       .  A
O410        C411   1.287       .  A
C411        C472   1.442       .  S
O412        C414   1.288       .  A
O413       Zr930   2.438   1_455  S
O413        C414   1.288       .  A
C414        C482   1.446       .  S
Zr415       O447   2.372       .  S
O416        H459   0.990       .  S
Zr418       O788   2.371       .  S
Zr418       O909   2.374       .  S
Zr418       O446   2.374       .  S
Zr418       O907   2.435       .  S
O419       Zr906   2.436   1_455  S
O419        H463   0.990       .  S
O421       Zr906   2.377   1_455  S
O421       Zr685   2.383   1_455  S
O422       Zr784   2.373   1_455  S
O422       Zr686   2.379   1_455  S
O422        H449   0.964       .  S
O423        C425   1.287       .  A
O424       Zr442   2.428       .  S
O424        C425   1.286       .  A
C425        C466   1.439       .  S
O426       Zr438   2.450       .  S
O426        C428   1.288       .  A
O427       Zr441   2.440       .  S
O427        C428   1.288       .  A
C428        C479   1.447       .  S
O429        C431   1.288       .  A
O430       Zr442   2.402       .  S
O430        C431   1.281       .  A
C431        C477   1.428   1_565  S
O432       Zr435   2.447       .  S
O432        C434   1.287       .  A
O433       Zr441   2.406       .  S
O433        C434   1.282       .  A
C434        C467   1.429       .  S
Zr435       O444   2.374       .  S
Zr435       O935   2.375       .  S
Zr435       O811   2.375       .  S
Zr435       O436   2.435       .  S
Zr435       O925   2.434       .  S
O436        H461   0.990       .  S
O437       Zr923   2.434   1_455  S
Zr438       O444   2.371       .  S
Zr438       O439   2.434       .  S
O439        H455   0.990       .  S
O440        H464   0.990       .  S
Zr441       O892   2.437       .  S
Zr441       O665   2.380   1_565  S
Zr441       O444   2.378       .  S
Zr441       O935   2.385       .  S
Zr442       O901   2.403       .  S
Zr442       O666   2.381   1_565  S
Zr442       O443   2.381       .  S
Zr442       O933   2.378       .  S
O443        H451   0.966       .  S
O445       Zr801   2.373   1_455  S
O445       Zr930   2.380   1_455  S
O446        H450   0.966       .  S
O447       Zr923   2.373   1_455  S
O447       Zr929   2.379   1_455  S
O447        H452   0.967       .  S
C465        C466   1.208       .  T
C467        C468   1.203       .  T
C469        C470   1.204       .  T
C471        C472   1.210       .  T
C473        C474   1.344       .  D
C473        H475   1.085       .  S
C474        H964   1.085       .  S
H476        C962   1.084       .  S
C477        C478   1.202       .  T
C479        C480   1.213       .  T
C481        C482   1.212       .  T
C483        C484   1.201       .  T
C485        C486   1.341       .  D
C485        H487   1.086       .  S
C489        C490   1.410       .  A
C489        C494   1.411       .  A
C489        C607   1.491       .  S
C490        C735   1.400       .  A
C490        H495   1.082       .  S
C491        C734   1.398       .  A
C491        C492   1.397       .  A
C491        C849   1.439       .  S
C492        C493   1.399       .  A
C492        H496   1.085       .  S
C493        C738   1.408       .  A
C493        C847   1.448       .  S
C494        C737   1.405       .  A
C494        H497   1.084       .  S
C498        C499   1.412       .  A
C498        C503   1.412       .  A
C498        C608   1.492       .  S
C499        C500   1.401       .  A
C499        H504   1.081       .  S
C500        C501   1.398       .  A
C500        C600   1.441       .  S
C501        C502   1.397       .  A
C501        H505   1.085       .  S
C502        C503   1.405       .  A
C502        C602   1.446       .  S
C503        H506   1.084       .  S
C507        C508   1.401   1_655  A
C507        C512   1.416       .  A
C507        C596   1.486       .  S
C508        C509   1.395       .  A
C508        H513   1.085       .  S
C509        C510   1.399   1_455  A
C509        C591   1.435       .  S
C510        C511   1.400       .  A
C510        H514   1.085       .  S
C511        C512   1.407       .  A
C511        C593   1.447       .  S
C512        H515   1.082       .  S
C516        C517   1.399       .  A
C516        C521   1.416       .  A
C516        C595   1.484       .  S
C517        C518   1.393       .  A
C517        H522   1.085       .  S
C518        C519   1.398       .  A
C518        C590   1.432       .  S
C519        C520   1.400       .  A
C519        H523   1.085       .  S
C520        C521   1.408       .  A
C520        C587   1.448       .  S
C521        H524   1.082       .  S
O525       Zr537   2.451       .  S
O525        C527   1.288       .  A
O526        C527   1.283       .  A
C527        C606   1.433       .  S
O528       Zr662   2.451   1_455  S
O528        C530   1.288       .  A
O529       Zr808   2.404   1_545  S
O529        C530   1.281   1_655  A
C530        C592   1.430       .  S
O531       Zr540   2.455   1_554  S
O531        C533   1.289       .  A
O532       Zr807   2.429   1_545  S
O532        C533   1.286       .  A
C533        C594   1.442       .  S
O534       Zr659   2.449       .  S
O534        C536   1.288       .  A
O535        C536   1.287       .  A
C536        C604   1.441       .  S
Zr537       O656   2.447   1_554  S
Zr537       O787   2.377       .  S
Zr537       O910   2.374   1_554  S
Zr537       O689   2.375   1_554  S
Zr537       O569   2.372       .  S
Zr537       O782   2.434       .  S
Zr537       O661   2.436       .  S
O538       Zr781   2.433   1_546  S
O538        H581   0.990   1_556  S
O539       Zr659   2.435       .  S
O539        H702   0.990       .  S
O539        H706   0.990       .  S
Zr540       O650   2.455       .  S
Zr540       O568   2.377   1_556  S
Zr540       O692   2.377       .  S
Zr540       O664   2.435       .  S
O541        H704   0.990   1_554  S
O541        H585   0.990       .  S
O542       Zr662   2.436       .  S
O542        H697   0.990       .  S
O543       Zr781   2.375   1_545  S
O544       Zr903   2.376   1_545  S
O544        H571   0.965       .  S
O545       Zr679   2.451       .  S
O545        C547   1.288       .  A
O546       Zr564   2.435       .  S
O546        C547   1.287       .  A
C547        C588   1.444       .  S
O548       Zr560   2.448   1_554  S
O548        C550   1.287       .  A
O549       Zr563   2.431       .  S
O549        C550   1.287       .  A
C550        C601   1.441       .  S
O551       Zr682   2.454       .  S
O551        C553   1.289       .  A
O552       Zr564   2.414       .  S
O552        C553   1.283       .  A
C553        C599   1.436       .  S
O554       Zr557   2.443   1_554  S
O554        C556   1.287       .  A
O555       Zr563   2.401       .  S
O555        C556   1.280       .  A
C556        C589   1.425       .  S
Zr557       O667   2.447       .  S
Zr557       O687   2.372       .  S
Zr557       O566   2.374   1_556  S
Zr557       O558   2.435       .  S
O558        H700   0.990       .  S
O558        H583   0.991       .  S
O559        H701   0.990       .  S
Zr560       O673   2.457       .  S
Zr560       O566   2.376   1_556  S
Zr560       O687   2.372       .  S
Zr560       O936   2.374       .  S
Zr560       O812   2.374   1_556  S
Zr560       O561   2.435       .  S
Zr560       O806   2.435       .  S
O561        H577   0.990   1_556  S
O562       Zr804   2.434   1_545  S
O562        H698   0.990       .  S
O562        H586   0.990       .  S
Zr563       O776   2.402       .  S
Zr563       O566   2.379       .  S
Zr563       O812   2.383       .  S
Zr564       O773   2.445       .  S
Zr564       O565   2.384       .  S
Zr564       O814   2.375       .  S
O565       Zr679   2.376       .  S
O565       Zr682   2.372       .  S
O565        H573   0.966       .  S
O567       Zr659   2.375       .  S
O568       Zr804   2.374   1_544  S
O568       Zr807   2.388   1_545  S
O568        H572   0.967       .  S
O569        H574   0.966       .  S
O570       Zr662   2.375       .  S
O570       Zr926   2.375   1_545  S
O570       Zr808   2.376   1_545  S
H575        O664   0.990       .  S
H576        O684   0.990       .  S
H578        O680   0.990       .  S
H579        O681   0.990       .  S
H580        O661   0.990       .  S
H582        O663   0.990       .  S
H584        O661   0.990       .  S
C587        C588   1.211       .  T
C589        C590   1.201       .  T
C591        C592   1.203       .  T
C593        C594   1.210       .  T
C595        C596   1.341       .  D
C595        H597   1.085       .  S
C599        C600   1.206       .  T
C601        C602   1.210       .  T
C603        C737   1.446       .  S
C603        C604   1.209       .  T
C605        C735   1.438       .  S
C605        C606   1.205       .  T
C607        C608   1.353       .  D
C607        H609   1.084       .  S
C608        H854   1.084       .  S
H610        C852   1.085   1_545  S
C611        C612   1.412       .  A
C611        C616   1.411       .  A
C611        C729   1.493       .  S
C612        C857   1.401       .  A
C612        H617   1.081       .  S
C613        C856   1.411       .  A
C613        C614   1.399       .  A
C613        C971   1.450       .  S
C614        C615   1.397       .  A
C614        H618   1.085       .  S
C615        C860   1.395       .  A
C615        C969   1.435       .  S
C616        C859   1.404       .  A
C616        H619   1.084       .  S
C620        C621   1.411       .  A
C620        C625   1.410       .  A
C620        C730   1.491       .  S
C621        C622   1.401       .  A
C621        H626   1.082       .  S
C622        C623   1.399       .  A
C622        C722   1.441       .  S
C623        C624   1.398       .  A
C623        H627   1.085       .  S
C624        C625   1.404       .  A
C624        C724   1.445       .  S
C625        H628   1.084       .  S
C629        C630   1.416       .  A
C629        C634   1.402   1_655  A
C629        C718   1.487       .  S
C630        C631   1.406       .  A
C630        H635   1.082       .  S
C631        C632   1.398   1_655  A
C631        C713   1.445       .  S
C632        C633   1.396       .  A
C632        H636   1.085       .  S
C633        C634   1.397       .  A
C633        C715   1.434       .  S
C634        H637   1.085       .  S
C638        C639   1.415       .  A
C638        C643   1.402       .  A
C638        C717   1.485       .  S
C639        C640   1.407       .  A
C639        H644   1.083       .  S
C640        C641   1.399       .  A
C640        C712   1.446       .  S
C641        C642   1.397       .  A
C641        H645   1.085       .  S
C642        C643   1.396       .  A
C642        C709   1.435       .  S
C643        H646   1.085       .  S
O647       Zr659   2.453       .  S
O647        C649   1.288       .  A
O648        C649   1.284       .  A
C649        C728   1.435       .  S
O650        C652   1.289       .  A
O651       Zr930   2.426   1_545  S
O651        C652   1.286       .  A
C652        C714   1.441       .  S
O653       Zr662   2.441   1_455  S
O653        C655   1.286       .  A
O654       Zr929   2.413   1_545  S
O654        C655   1.283   1_655  A
C655        C716   1.429       .  S
O656        C658   1.287       .  A
O657        C658   1.286       .  A
C658        C726   1.440       .  S
Zr659       O909   2.376       .  S
Zr659       O788   2.373       .  S
Zr659       O691   2.372       .  S
Zr659       O904   2.433       .  S
O660       Zr903   2.435   1_545  S
O660        H703   0.990       .  S
Zr662       O690   2.376       .  S
O663        H707   0.990       .  S
O665       Zr903   2.378   1_545  S
O666       Zr781   2.374   1_546  S
O666        H693   0.964       .  S
O667        C669   1.287       .  A
O668       Zr686   2.407       .  S
O668        C669   1.281       .  A
C669        C710   1.430       .  S
O670       Zr682   2.447       .  S
O670        C672   1.287       .  A
O671       Zr685   2.433       .  S
O671        C672   1.287       .  A
C672        C723   1.440       .  S
O673        C675   1.289       .  A
O674       Zr686   2.410       .  S
O674        C675   1.282       .  A
C675        C721   1.435       .  S
O676       Zr679   2.450       .  S
O676        C678   1.288       .  A
O677       Zr685   2.431       .  S
O677        C678   1.287       .  A
C678        C711   1.441       .  S
Zr679       O688   2.377       .  S
Zr679       O680   2.435       .  S
O680        H705   0.990       .  S
Zr682       O688   2.379       .  S
Zr682       O814   2.374       .  S
Zr682       O934   2.373       .  S
Zr682       O683   2.434       .  S
Zr682       O928   2.435       .  S
O683        H699   0.990       .  S
O684       Zr926   2.435   1_545  S
O684        H708   0.990       .  S
Zr685       O898   2.428       .  S
Zr685       O688   2.384       .  S
Zr685       O934   2.384       .  S
Zr686       O895   2.411       .  S
Zr686       O687   2.380       .  S
Zr686       O936   2.375       .  S
O687        H695   0.964       .  S
O690       Zr926   2.371   1_545  S
O690       Zr929   2.379   1_545  S
O690        H694   0.966       .  S
O691        H696   0.966       .  S
O692       Zr804   2.379   1_545  S
O692       Zr930   2.383   1_545  S
C709        C710   1.203       .  T
C711        C712   1.210       .  T
C713        C714   1.209       .  T
C715        C716   1.202       .  T
C717        C718   1.343       .  D
C717        H719   1.085       .  S
C721        C722   1.206       .  T
C723        C724   1.209       .  T
C725        C859   1.445       .  S
C725        C726   1.209       .  T
C727        C857   1.441       .  S
C727        C728   1.206       .  T
C729        C730   1.352       .  D
C729        H731   1.085       .  S
C730        H976   1.083       .  S
H732        C974   1.085       .  S
C733        C734   1.404       .  A
C733        C738   1.416       .  A
C733        C851   1.489       .  S
C734        H739   1.085       .  S
C735        C736   1.398       .  A
C736        C737   1.397       .  A
C736        H740   1.085       .  S
C738        H741   1.082       .  S
C742        C743   1.404       .  A
C742        C747   1.415       .  A
C742        C852   1.489       .  S
C743        C744   1.398   1_565  A
C743        H748   1.085       .  S
C744        C745   1.399   1_545  A
C744        C844   1.440       .  S
C745        C746   1.401       .  A
C745        H749   1.085   1_565  S
C746        C747   1.406       .  A
C746        C846   1.447       .  S
C747        H750   1.082       .  S
C751        C752   1.420       .  A
C751        C756   1.400       .  A
C751        C840   1.490       .  S
C752        C753   1.412       .  A
C752        H757   1.082       .  S
C753        C754   1.400       .  A
C753        C835   1.453       .  S
C754        C755   1.398       .  A
C754        H758   1.085       .  S
C755        C756   1.394       .  A
C755        C837   1.434       .  S
C756        H759   1.085       .  S
C760        C761   1.419       .  A
C760        C765   1.400       .  A
C760        C839   1.488       .  S
C761        C762   1.412       .  A
C761        H766   1.082       .  S
C762        C763   1.399       .  A
C762        C834   1.450       .  S
C763        C764   1.396       .  A
C763        H767   1.085       .  S
C764        C765   1.394       .  A
C764        C831   1.432       .  S
C765        H768   1.085       .  S
O769       Zr781   2.451       .  S
O769        C771   1.288       .  A
O770        C771   1.283       .  A
C771        C850   1.434       .  S
O772       Zr906   2.453       .  S
O772        C774   1.288       .  A
O773        C774   1.289       .  A
C774        C836   1.450       .  S
O775       Zr784   2.449   1_554  S
O775        C777   1.288       .  A
O776        C777   1.281       .  A
C777        C838   1.427       .  S
O778       Zr903   2.454       .  S
O778        C780   1.289       .  A
O779        C780   1.287       .  A
C780        C848   1.444       .  S
Zr781       O900   2.451   1_554  S
Zr781       O933   2.373   1_554  S
Zr781       O813   2.373       .  S
Zr781       O905   2.435       .  S
O782        H825   0.990       .  S
O783       Zr903   2.436       .  S
O783        H946   0.990       .  S
O783        H950   0.990       .  S
Zr784       O894   2.454       .  S
Zr784       O812   2.375   1_556  S
Zr784       O936   2.374       .  S
Zr784       O908   2.435       .  S
O785        H948   0.990   1_554  S
O785        H829   0.990       .  S
O786       Zr906   2.433       .  S
O786        H941   0.990       .  S
O788        H815   0.964       .  S
O789       Zr923   2.447       .  S
O789        C791   1.287       .  A
O790       Zr808   2.401       .  S
O790        C791   1.280       .  A
C791        C832   1.427       .  S
O792       Zr804   2.457   1_554  S
O792        C794   1.289       .  A
O793       Zr807   2.423       .  S
O793        C794   1.285       .  A
C794        C845   1.441       .  S
O795       Zr926   2.447       .  S
O795        C797   1.287       .  A
O796       Zr808   2.417       .  S
O796        C797   1.283       .  A
C797        C843   1.434   1_565  S
O798       Zr801   2.450   1_554  S
O798        C800   1.288       .  A
O799       Zr807   2.440       .  S
O799        C800   1.289       .  A
C800        C833   1.446       .  S
Zr801       O911   2.450       .  S
Zr801       O931   2.373       .  S
Zr801       O810   2.373   1_556  S
Zr801       O802   2.435       .  S
O802        H944   0.990       .  S
O802        H827   0.990       .  S
O803        H945   0.990   1_554  S
Zr804       O917   2.454       .  S
Zr804       O810   2.376   1_556  S
Zr804       O931   2.374       .  S
Zr804       O805   2.434       .  S
O805        H821   0.990   1_556  S
O806        H942   0.990       .  S
O806        H830   0.990       .  S
Zr807       O810   2.378       .  S
Zr808       O809   2.380       .  S
O809       Zr923   2.375       .  S
O809       Zr926   2.373       .  S
O809        H817   0.964       .  S
O811       Zr903   2.377       .  S
O812        H816   0.967       .  S
O813        H818   0.968       .  S
O814       Zr906   2.375       .  S
H819        O908   0.990       .  S
H820        O928   0.990       .  S
H822        O924   0.990       .  S
H823        O925   0.990       .  S
H824        O905   0.990       .  S
H826        O907   0.990       .  S
H828        O905   0.990       .  S
C831        C832   1.201       .  T
C833        C834   1.212       .  T
C835        C836   1.214       .  T
C837        C838   1.202       .  T
C839        C840   1.341       .  D
C839        H841   1.086       .  S
C843        C844   1.206       .  T
C845        C846   1.210       .  T
C847        C848   1.211       .  T
C849        C850   1.206       .  T
C851        C852   1.345       .  D
C851        H853   1.085       .  S
C855        C856   1.419       .  A
C855        C860   1.402       .  A
C855        C973   1.491       .  S
C856        H861   1.082       .  S
C857        C858   1.398       .  A
C858        C859   1.398       .  A
C858        H862   1.085       .  S
C860        H863   1.085       .  S
C864        C865   1.419       .  A
C864        C869   1.401       .  A
C864        C974   1.489   1_565  S
C865        C866   1.411       .  A
C865        H870   1.082   1_565  S
C866        C867   1.398       .  A
C866        C966   1.449       .  S
C867        C868   1.395       .  A
C867        H871   1.085       .  S
C868        C869   1.394       .  A
C868        C968   1.432       .  S
C869        H872   1.085       .  S
C873        C874   1.412       .  A
C873        C878   1.409       .  A
C873        C962   1.490       .  S
C874        C875   1.401       .  A
C874        H879   1.081       .  S
C875        C876   1.398       .  A
C875        C957   1.441       .  S
C876        C877   1.397       .  A
C876        H880   1.085       .  S
C877        C878   1.402       .  A
C877        C959   1.442       .  S
C878        H881   1.084       .  S
C882        C883   1.412       .  A
C882        C887   1.408       .  A
C882        C961   1.490       .  S
C883        C884   1.401       .  A
C883        H888   1.081       .  S
C884        C885   1.399       .  A
C884        C956   1.442       .  S
C885        C886   1.398       .  A
C885        H889   1.085       .  S
C886        C887   1.402       .  A
C886        C953   1.442       .  S
C887        H890   1.084       .  S
O891       Zr903   2.453       .  S
O891        C893   1.288       .  A
O892        C893   1.288       .  A
C893        C972   1.446       .  S
O894        C896   1.288       .  A
O895        C896   1.282       .  A
C896        C958   1.435       .  S
O897       Zr906   2.444       .  S
O897        C899   1.287       .  A
O898        C899   1.286       .  A
C899        C960   1.437       .  S
O900        C902   1.288       .  A
O901        C902   1.281       .  A
C902        C970   1.429       .  S
Zr903       O935   2.377       .  S
O904        H947   0.990       .  S
Zr906       O934   2.374       .  S
O907        H951   0.990       .  S
O910        H937   0.965       .  S
O911        C913   1.288       .  A
O912       Zr930   2.421       .  S
O912        C913   1.285       .  A
C913        C954   1.437       .  S
O914       Zr926   2.443       .  S
O914        C916   1.286       .  A
O915       Zr929   2.404       .  S
O915        C916   1.281       .  A
C916        C967   1.426       .  S
O917        C919   1.288       .  A
O918       Zr930   2.436       .  S
O918        C919   1.288       .  A
C919        C965   1.445       .  S
O920       Zr923   2.449       .  S
O920        C922   1.288       .  A
O921       Zr929   2.418       .  S
O921        C922   1.283       .  A
C922        C955   1.436       .  S
Zr923       O932   2.375       .  S
Zr923       O924   2.435       .  S
O924        H949   0.990       .  S
Zr926       O932   2.375       .  S
Zr926       O927   2.434       .  S
O927        H943   0.990       .  S
O928        H952   0.990       .  S
Zr929       O932   2.374       .  S
Zr930       O931   2.385       .  S
O931        H939   0.965       .  S
O934        H938   0.967       .  S
O935        H940   0.967       .  S
C953        C954   1.207       .  T
C955        C956   1.207       .  T
C957        C958   1.206       .  T
C959        C960   1.207       .  T
C961        C962   1.350       .  D
C961        H963   1.084       .  S
C965        C966   1.212       .  T
C967        C968   1.201       .  T
C969        C970   1.203       .  T
C971        C972   1.212       .  T
C973        C974   1.342   1_565  D
C973        H975   1.086       .  S
