geometry optimzed in LAMMPS
_audit_creation_date              2020-11-30 
_audit_creation_method            'lammps2cif' 
_symmetry_space_group_name_H-M    'P1' 
_symmetry_Int_Tables_number       1 
_symmetry_cell_setting            triclinic 
loop_ 
_symmetry_equiv_pos_as_xyz 
  x,y,z 
_cell_length_a                    29.91688502 
_cell_length_b                    29.24157357783911 
_cell_length_c                    29.5997220955839 
_cell_angle_alpha                 85.04046326935676 
_cell_angle_beta                  91.01282055682353 
_cell_angle_gamma                 121.40798406030787 
loop_ 
_atom_site_label 
_atom_site_type_symbol 
_atom_site_fract_x 
_atom_site_fract_y 
_atom_site_fract_z 
_atom_site_charge 
C1          C  0.75258285  0.15476684  0.20115604     0.79600
N2          N  0.76514947  0.13161357  0.23752417    -0.78700
C3          C  0.78203979  0.14425744  0.02824222     0.82100
N4          N  0.80867318  0.19848711  0.02146361    -0.78600
C5          C  0.79844968  0.22467777  0.98690123     0.82200
N6          N  0.77967749  0.21029907  0.19404186    -0.80300
C7          C  0.19134961  0.43029190  0.19075723     0.79600
N8          N  0.17333705  0.40472162  0.23290101    -0.78700
C9          C  0.19302882  0.39316796  0.01045532     0.82100
N10         N  0.24324825  0.41003555  0.00062584    -0.78600
C11         C  0.26662729  0.43510706  0.96007473     0.82200
N12         N  0.23842216  0.44463154  0.92753255    -0.80300
C13         C  0.46258388  0.16600346  0.98610046     0.79600
N14         N  0.42608770  0.15291466  0.01952213    -0.78700
C15         C  0.40976279  0.19305625  0.27546658     0.82100
N16         N  0.42697306  0.23555351  0.24356575    -0.78600
C17         C  0.45936459  0.24269038  0.20825555     0.82200
N18         N  0.47423258  0.20568784  0.20485806    -0.80300
C19         C  0.29106118  0.82278629  0.17586906     0.79600
N20         N  0.28782687  0.85263471  0.20671698    -0.78700
C21         C  0.24666999  0.83112804  0.23626584     0.82100
N22         N  0.19832383  0.76429037  0.00356541    -0.78600
C23         C  0.19736403  0.73619947  0.96926469     0.82200
N24         N  0.25157883  0.76955711  0.17489078    -0.80300
C25         C  0.84058922  0.54022740  0.19287089     0.79600
N26         N  0.78549979  0.51378718  0.94231529    -0.78700
C27         C  0.75813716  0.52611251  0.97120742     0.82100
N28         N  0.78391267  0.55880265  0.00412790    -0.78600
C29         C  0.83555454  0.57956332  0.00994352     0.82200
N30         N  0.86895288  0.57641046  0.22336669    -0.80300
C31         C  0.58957987  0.79087150  0.93167357     0.79600
N32         N  0.55948553  0.74127715  0.17260898    -0.78700
C33         C  0.58562473  0.71411563  0.16706763     0.82100
N34         N  0.63430479  0.73411334  0.18401522    -0.78600
C35         C  0.65705600  0.77918770  0.20584772     0.82200
N36         N  0.64110969  0.81344131  0.93919112    -0.80300
O37         O  0.01445392  0.06693347  0.34231334    -0.88900
C38         C  0.07872624  0.05103255  0.20321540     0.87100
Mg39       Mg  0.93968778  0.00312515  0.32666047     1.58100
O40         O  0.13687254  0.04503938  0.35056855    -0.88700
O41         O  0.09224377  0.11793733  0.31041609    -0.76000
C42         C  0.93402669  0.76316322  0.10893255     0.92200
O43         O  0.94824788  0.99146410  0.19089906    -0.75800
O44         O  0.90243075  0.77977644  0.10900783    -0.83300
Mg45       Mg  0.00452079  0.07648706  0.15581793     1.58000
C46         C  0.17275344  0.92772040  0.33893731     0.92100
O47         O  0.07576747  0.17900085  0.38469207    -0.81600
H48         H  0.17336338  0.07695712  0.28996597    -0.06900
C49         C  0.01761209  0.88503552  0.18706398     0.87000
O50         O  0.97796859  0.97801094  0.27664884    -0.76100
O51         O  0.07075115  0.06574736  0.16516903    -0.88800
O52         O  0.18673163  0.96858436  0.36064621    -0.81700
C53         C  0.22806561  0.10048698  0.15178536     0.92200
C54         C  0.12454344  0.21341190  0.38002106     0.92000
Mg55       Mg  0.06045673  0.91036990  0.32251773     1.58000
O56         O  0.98267471  0.79449579  0.11486013    -0.81600
O57         O  0.12045983  0.99659758  0.29399120    -0.75800
O58         O  0.19840546  0.11920698  0.15626563    -0.81700
O59         O  0.93531572  0.08919595  0.14019478    -0.83400
O60         O  0.87391631  0.86837462  0.31167924    -0.81700
C61         C  0.14520869  0.04136078  0.31087684     0.86500
O62         O  0.99832891  0.92539086  0.31665226    -0.88800
O63         O  0.04793167  0.91299929  0.15462644    -0.88900
O64         O  0.96802251  0.86275981  0.18393874    -0.76000
Mg65       Mg  0.14766906  0.12051548  0.36593217     1.58000
O66         O  0.21088017  0.05109423  0.16309313    -0.83400
H67         H  0.02540928  0.10311012  0.27954803    -0.07100
O68         O  0.92665723  0.93509440  0.13884226    -0.88600
H69         H  0.89923359  0.91048051  0.20296940    -0.06900
H70         H  0.01020714  0.94030474  0.24960539    -0.07100
C71         C  0.92343381  0.94393941  0.17838159     0.86500
C72         C  0.04294807  0.09657833  0.30974738     0.87000
C73         C  0.99565713  0.94684706  0.27977610     0.87100
H74         H  0.03350023  0.87965897  0.21880645    -0.07100
O75         O  0.09705410  0.02032040  0.20849982    -0.76100
Mg76       Mg  0.91440364  0.85891693  0.12438692     1.58000
H77         H  0.06921849  0.06391579  0.23270928    -0.07100
C78         C  0.88923644  0.05498384  0.12839647     0.92100
O79         O  0.86231452  0.93746729  0.30672581    -0.83300
C80         C  0.84900482  0.89076669  0.29719624     0.92100
O81         O  0.15853680  0.19961539  0.38167953    -0.83300
Mg82       Mg  0.12687467  0.98132804  0.16250378     1.58200
O83         O  0.87672188  0.00698082  0.12427491    -0.81600
O84         O  0.12577077  0.89603529  0.32864556    -0.83300
C85         C  0.03595348  0.45939585  0.08755866     0.85900
C86         C  0.06607294  0.50446499  0.05039697    -0.54300
C87         C  0.03790266  0.52011964  0.02426874     0.08800
C88         C  0.97768906  0.48523387  0.03703846     0.19800
C89         C  0.00422228  0.47690645  0.11428672    -0.55100
C90         C  0.97290914  0.48954908  0.08857915     0.08900
C91         C  0.99400559  0.41309824  0.06107333    -0.54600
C92         C  0.96313284  0.42601947  0.03460400     0.09500
H93         H  0.10838263  0.52486803  0.04664522     0.14000
H94         H  0.95311951  0.49590544  0.01576858    -0.00200
H95         H  0.00546893  0.47800781  0.15086681     0.14300
H96         H  0.98825630  0.37322737  0.06273847     0.14100
C97         C  0.55434640  0.94396635  0.01908428     0.85900
C98         C  0.50454663  0.91112941  0.04858366    -0.54300
C99         C  0.49322205  0.93840903  0.07649730     0.08800
C100        C  0.53339757  0.00039807  0.07009737     0.19800
C101        C  0.54489180  0.98609791  0.99172605    -0.55100
C102        C  0.53381567  0.01565541  0.01845751     0.08900
C103        C  0.59857359  0.97848215  0.05141544    -0.54600
C104        C  0.58878209  0.00875441  0.07828830     0.09500
H105        H  0.47782232  0.86879218  0.04451212     0.14000
H106        H  0.52357015  0.02334681  0.09164117    -0.00200
H107        H  0.54506524  0.99141262  0.95504777     0.14300
H108        H  0.63611388  0.98114956  0.05091348     0.14100
C109        C  0.45845238  0.45627709  0.01737269     0.85900
C110        C  0.47416732  0.50369470  0.04552494    -0.54300
C111        C  0.51591484  0.51803044  0.07256969     0.08800
C112        C  0.53946104  0.48112428  0.06898437     0.19800
C113        C  0.50924901  0.47136408  0.99099560    -0.55100
C114        C  0.55162964  0.48358200  0.01761220     0.08900
C115        C  0.45053990  0.41112743  0.05397983    -0.54600
C116        C  0.49302581  0.42250085  0.07965309     0.09500
H117        H  0.45348484  0.52517295  0.04365822     0.14000
H118        H  0.57351258  0.49116456  0.09060508    -0.00200
H119        H  0.51058776  0.46955063  0.95457550     0.14300
H120        H  0.41468941  0.37317645  0.06140587     0.14100
C121        C  0.77669941  0.79891478  0.00202033    -0.26900
C122        C  0.80314550  0.86158028  0.26892143    -0.15000
C123        C  0.78745238  0.88906582  0.23686109     0.35700
C124        C  0.74262844  0.85978041  0.21263583    -0.26300
C125        C  0.71067474  0.80399318  0.22145036    -0.15600
C126        C  0.73637559  0.77738705  0.97094537     0.36700
N127        N  0.71009501  0.72130140  0.96438701    -0.89800
H128        H  0.78702141  0.77249168  0.02096225     0.17900
H129        H  0.73065730  0.88132364  0.18877228     0.17800
N130        N  0.81477478  0.94653082  0.22881929    -0.88900
H131        H  0.69507470  0.69933264  0.99583697     0.35200
H132        H  0.73783969  0.71324524  0.95264911     0.40300
H133        H  0.85410493  0.96135756  0.22109267     0.39900
H134        H  0.81172583  0.96260426  0.25791829     0.34800
C135        C  0.56599330  0.82037167  0.99785745    -0.26900
C136        C  0.56578458  0.81984949  0.95049945    -0.15000
C137        C  0.56403609  0.86209907  0.92479665     0.35700
C138        C  0.55940652  0.90094002  0.94667227    -0.26300
C139        C  0.56240150  0.90323607  0.99433456    -0.15600
C140        C  0.56693411  0.86177759  0.01963496     0.36700
N141        N  0.57488607  0.86098511  0.06759932    -0.89800
H142        H  0.57095935  0.79080406  0.01833052     0.17900
H143        H  0.55429491  0.92976854  0.92565986     0.17800
N144        N  0.64757602  0.90762371  0.17725913    -0.88900
H145        H  0.54405957  0.85898010  0.08540868     0.35200
H146        H  0.61016323  0.89512585  0.07456541     0.40300
H147        H  0.64948176  0.88293909  0.15487985     0.39900
H148        H  0.67744898  0.91831487  0.20045169     0.34800
C149        C  0.60228864  0.65311961  0.12402029    -0.26900
C150        C  0.56528701  0.66394508  0.14190947    -0.15000
C151        C  0.51174654  0.62429731  0.13859935     0.35700
C152        C  0.49701927  0.57628336  0.11859419    -0.26300
C153        C  0.53418976  0.56602225  0.10021952    -0.15600
C154        C  0.58744478  0.60541740  0.10347469     0.36700
N155        N  0.62690079  0.59827931  0.08459894    -0.89800
H156        H  0.64380016  0.68234061  0.12553631     0.17900
H157        H  0.45559704  0.54672638  0.11711632     0.17800
N158        N  0.47132454  0.63106305  0.15570667    -0.88900
H159        H  0.65138966  0.59917146  0.11055274     0.35200
H160        H  0.64947576  0.63093245  0.06082129     0.40300
H161        H  0.47424669  0.66521994  0.13833855     0.39900
H162        H  0.47716181  0.63699987  0.19015922     0.34800
C163        C  0.86019354  0.66979299  0.10395885    -0.26900
C164        C  0.91375465  0.70777539  0.09660133    -0.12100
C165        C  0.95837956  0.72070869  0.29146278     0.35700
C166        C  0.93054201  0.67217469  0.27108382    -0.26300
C167        C  0.86289567  0.61777657  0.04519017    -0.15600
C168        C  0.83455728  0.62505219  0.07872890     0.36700
N169        N  0.77927596  0.58864258  0.08604259    -0.89800
H170        H  0.83714978  0.67699902  0.12694000     0.17900
H171        H  0.94921824  0.66609274  0.24317288     0.17800
N172        N  0.01036901  0.76035044  0.27487274    -0.88900
H173        H  0.76065086  0.61037083  0.08009229     0.35200
H174        H  0.77227970  0.57329353  0.12010640     0.40300
H175        H  0.00885475  0.76955495  0.24014468     0.39900
H176        H  0.03362551  0.74333966  0.27886854     0.34800
C177        C  0.61578783  0.45232685  0.01202396    -0.26900
C178        C  0.60208324  0.49087207  0.99929918    -0.15000
C179        C  0.63750818  0.53648891  0.97030611     0.35700
C180        C  0.68560479  0.54333599  0.95579743    -0.26300
C181        C  0.70057784  0.50600467  0.97005488    -0.15600
C182        C  0.66441484  0.45974937  0.99836570     0.36700
N183        N  0.67755073  0.42122380  0.01609513    -0.89800
H184        H  0.58929752  0.41703343  0.03424696     0.17900
H185        H  0.71348359  0.58052233  0.93627424     0.17800
N186        N  0.62718967  0.57840276  0.95775282    -0.88900
H187        H  0.71103500  0.44073410  0.03532769     0.35200
H188        H  0.68645617  0.40666237  0.98875154     0.40300
H189        H  0.62297233  0.59305972  0.98732228     0.39900
H190        H  0.59149256  0.56156076  0.94150320     0.34800
C191        C  0.92402431  0.56609188  0.15034015    -0.26900
C192        C  0.87057403  0.52713370  0.16065111    -0.15000
C193        C  0.85021535  0.47617220  0.14369242     0.35700
C194        C  0.88340511  0.46506453  0.11935451    -0.26300
C195        C  0.93683165  0.50392472  0.11003751    -0.15600
C196        C  0.95677802  0.55489807  0.12571549     0.36700
N197        N  0.01095109  0.59527303  0.11750327    -0.89800
H198        H  0.94114713  0.60570253  0.16223131     0.17900
H199        H  0.86762922  0.42492791  0.10936596     0.17800
N200        N  0.95525473  0.58079388  0.95865181    -0.88900
H201        H  0.02817875  0.60652572  0.14882641     0.35200
H202        H  0.01312902  0.62884173  0.09974268     0.40300
H203        H  0.93876628  0.56276770  0.99083900     0.39900
H204        H  0.95474402  0.61608614  0.95095851     0.34800
C205        C  0.20711074  0.86840391  0.33994799    -0.26900
C206        C  0.21116524  0.91645113  0.32249621    -0.15000
C207        C  0.23728193  0.94184305  0.28055460     0.35700
C208        C  0.25337255  0.91536502  0.25395950    -0.26300
C209        C  0.24284871  0.86376285  0.26896226    -0.15600
C210        C  0.22293536  0.84184263  0.31361008     0.36700
N211        N  0.21724943  0.79227167  0.33264200    -0.89800
H212        H  0.18742960  0.84914018  0.37256062     0.17900
H213        H  0.19658917  0.77606411  0.09276871     0.17800
N214        N  0.24264981  0.99177812  0.26310651    -0.88900
H215        H  0.25298832  0.79447427  0.32851316     0.35200
H216        H  0.18835864  0.76038694  0.31586064     0.40300
H217        H  0.22302408  0.98574074  0.23257220     0.39900
H218        H  0.28243350  0.01962305  0.25599314     0.34800
C219        C  0.06083055  0.61402470  0.99867173    -0.26900
C220        C  0.06847212  0.57153633  0.99358021    -0.15000
C221        C  0.11481874  0.58336047  0.96982106     0.35700
C222        C  0.15504210  0.63746401  0.95768923    -0.26300
C223        C  0.14969802  0.68041790  0.96782241    -0.15600
C224        C  0.09963271  0.66755690  0.98494207     0.36700
N225        N  0.08700449  0.70792886  0.99002721    -0.89800
H226        H  0.02670724  0.60646577  0.01763557     0.17900
H227        H  0.19210920  0.64599227  0.94370665     0.17800
N228        N  0.12304325  0.54028848  0.96258385    -0.88900
H229        H  0.09748075  0.73322964  0.95993462     0.35200
H230        H  0.10692403  0.73020878  0.01701021     0.40300
H231        H  0.09537317  0.51629931  0.93973758     0.39900
H232        H  0.16040094  0.55506997  0.94857480     0.34800
C233        C  0.36910073  0.82573249  0.14276952    -0.26900
C234        C  0.33966120  0.84992635  0.14627854    -0.15000
C235        C  0.36207707  0.90441512  0.12870792     0.35700
C236        C  0.41282462  0.93329436  0.10829228    -0.26300
C237        C  0.44229600  0.90905306  0.10417147    -0.15600
C238        C  0.41996990  0.85461841  0.12265002     0.36700
N239        N  0.44934477  0.82859709  0.12251662    -0.89800
H240        H  0.35245392  0.78242752  0.92900975     0.17900
H241        H  0.42859690  0.97460151  0.09472489     0.17800
N242        N  0.33304774  0.93063802  0.13116086    -0.88900
H243        H  0.42946147  0.79662494  0.87612177     0.35200
H244        H  0.45201422  0.81604450  0.15593356     0.40300
H245        H  0.32930871  0.94383425  0.09813458     0.39900
H246        H  0.35489415  0.96460129  0.14894037     0.34800
C247        C  0.32898837  0.18710975  0.05711140    -0.26900
C248        C  0.36312120  0.16735505  0.06080030    -0.15000
C249        C  0.37362696  0.15617497  0.35564090     0.35700
C250        C  0.33404810  0.14041370  0.38878389    -0.26300
C251        C  0.27958291  0.13227509  0.12608823    -0.15600
C252        C  0.28786157  0.17030165  0.08928011     0.36700
N253        N  0.25284697  0.18972818  0.08277663    -0.89800
H254        H  0.33276467  0.21428481  0.02809117     0.17900
H255        H  0.33220939  0.11542274  0.41882851     0.17800
N256        N  0.41160081  0.14076118  0.36330717    -0.88900
H257        H  0.23606737  0.17976326  0.05111040     0.35200
H258        H  0.27488498  0.23167188  0.08216879     0.40300
H259        H  0.39175256  0.09883127  0.36885497     0.39900
H260        H  0.43109251  0.15666809  0.39278230     0.34800
C261        C  0.44811553  0.07372172  0.98572004    -0.26900
C262        C  0.48395403  0.12967160  0.98351224    -0.15000
C263        C  0.53802047  0.14785726  0.98610563     0.35700
C264        C  0.55423689  0.11031478  0.99473171    -0.26300
C265        C  0.51767426  0.05451357  0.00039183    -0.15600
C266        C  0.46451639  0.03642583  0.99338543     0.36700
N267        N  0.42677990  0.97994375  0.99475673    -0.89800
H268        H  0.39241939  0.05436655  0.23615629     0.17900
H269        H  0.59550239  0.12489567  0.99846450     0.17800
N270        N  0.57701668  0.20405756  0.98226848    -0.88900
H271        H  0.37412780  0.96525395  0.28001048     0.35200
H272        H  0.40939357  0.97218731  0.96319212     0.40300
H273        H  0.56897536  0.22223482  0.00720315     0.39900
H274        H  0.57413470  0.22072778  0.95046642     0.34800
C275        C  0.50900224  0.38698592  0.15587430    -0.26900
C276        C  0.49344231  0.37882981  0.11094308    -0.15000
C277        C  0.47442132  0.32701684  0.09666690     0.35700
C278        C  0.46637655  0.28369185  0.12794523    -0.26300
C279        C  0.47697112  0.29074416  0.17409713    -0.15600
C280        C  0.49982147  0.34377366  0.18761674     0.36700
N281        N  0.51425657  0.35506162  0.23349618    -0.89800
H282        H  0.52657015  0.42678643  0.16677084     0.17900
H283        H  0.44990213  0.24403096  0.11635626     0.17800
N284        N  0.46344554  0.31848716  0.04996163    -0.88900
H285        H  0.53896588  0.34081184  0.24306399     0.35200
H286        H  0.48059012  0.33484892  0.25451969     0.40300
H287        H  0.42370862  0.28968866  0.04806862     0.39900
H288        H  0.48574297  0.30367072  0.03809167     0.34800
C289        C  0.17521352  0.29281444  0.10671589    -0.26900
C290        C  0.14232623  0.27031998  0.36687020    -0.15000
C291        C  0.10833688  0.28500952  0.34568509     0.35700
C292        C  0.12924217  0.33025692  0.31404833    -0.26300
C293        C  0.18345088  0.36136177  0.30472307    -0.15600
C294        C  0.19721959  0.34330075  0.08223185     0.36700
N295        N  0.25146829  0.38326378  0.08749661    -0.89800
H296        H  0.19940283  0.28425532  0.12927542     0.17900
H297        H  0.10267213  0.33766880  0.29394931     0.17800
N298        N  0.05271462  0.25214681  0.35339963    -0.88900
H299        H  0.26801088  0.36990370  0.11265441     0.35200
H300        H  0.25319576  0.41725099  0.09818440     0.40300
H301        H  0.03532985  0.23942257  0.32238134     0.39900
H302        H  0.03975006  0.27607243  0.36530968     0.34800
C303        C  0.41239669  0.49192347  0.96417281    -0.26900
C304        C  0.41150415  0.44644882  0.98675397    -0.15000
C305        C  0.36436521  0.39580670  0.98413390     0.35700
C306        C  0.31963295  0.39338600  0.96557451    -0.26300
C307        C  0.31820510  0.43998587  0.95247897    -0.15600
C308        C  0.36600873  0.48970380  0.94983956     0.36700
N309        N  0.36780026  0.53888583  0.93658160    -0.89800
H310        H  0.44827919  0.53097726  0.96275734     0.17900
H311        H  0.28340418  0.35452897  0.96699168     0.17800
N312        N  0.35993911  0.34635351  0.00147852    -0.88900
H313        H  0.34349186  0.54267192  0.95894672     0.35200
H314        H  0.35280431  0.53631889  0.90410836     0.40300
H315        H  0.34728340  0.32017732  0.97606325     0.39900
H316        H  0.33071041  0.32844514  0.02721196     0.34800
C317        C  0.06907335  0.39965680  0.12576287    -0.26900
C318        C  0.07535149  0.45080698  0.11645486    -0.15000
C319        C  0.12134268  0.49562731  0.13265207     0.35700
C320        C  0.16075675  0.48884713  0.15331233    -0.26300
C321        C  0.15431496  0.43791505  0.16145609    -0.15600
C322        C  0.10681880  0.39294808  0.14962531     0.36700
N323        N  0.09588397  0.33990060  0.16353520    -0.89800
H324        H  0.03387968  0.36396707  0.11664795     0.17900
H325        H  0.20436345  0.51903281  0.88922168     0.17800
N326        N  0.14448625  0.54805345  0.84532751    -0.88900
H327        H  0.08669494  0.31879275  0.13485205     0.35200
H328        H  0.06254559  0.32068079  0.18502195     0.40300
H329        H  0.16513012  0.57705690  0.13843805     0.39900
H330        H  0.15560907  0.57090167  0.87307317     0.34800
C331        C  0.78163780  0.06288564  0.06409197    -0.26900
C332        C  0.80006063  0.11798471  0.06365744    -0.15000
C333        C  0.83984536  0.14830771  0.09414228     0.35700
C334        C  0.86562317  0.12561222  0.11819240    -0.26300
C335        C  0.85158378  0.07234648  0.11415171    -0.15600
C336        C  0.80599979  0.03942670  0.08980314     0.36700
N337        N  0.78506745  0.98260023  0.09035335    -0.89800
H338        H  0.74936720  0.03824125  0.04298207     0.17900
H339        H  0.89859203  0.15089256  0.13844024     0.17800
N340        N  0.88064292  0.22547735  0.33431053    -0.88900
H341        H  0.75161673  0.96457171  0.07085746     0.35200
H342        H  0.77262395  0.96585263  0.12370388     0.40300
H343        H  0.92049168  0.24830154  0.32497662     0.39900
H344        H  0.87649275  0.23148228  0.36793162     0.34800
C345        C  0.88511636  0.30599469  0.96498444    -0.26900
C346        C  0.83371457  0.28447713  0.98203993    -0.15000
C347        C  0.82424620  0.31616614  0.00913141     0.35700
C348        C  0.86625859  0.36605398  0.02152271    -0.26300
C349        C  0.91841826  0.38411105  0.00907037    -0.15600
C350        C  0.92718033  0.35504117  0.97840909     0.36700
N351        N  0.97935371  0.37416442  0.96237516    -0.89800
H352        H  0.89358905  0.28211473  0.94469200     0.17900
H353        H  0.85832876  0.38816642  0.04414034     0.17800
N354        N  0.77251516  0.29561214  0.02729346    -0.88900
H355        H  0.97979780  0.37927605  0.92701094     0.35200
H356        H  0.98803235  0.34438967  0.97164658     0.40300
H357        H  0.76147755  0.32339270  0.01719269     0.39900
H358        H  0.77393066  0.29304229  0.06270222     0.34800
C359        C  0.67927955  0.13390945  0.14480000    -0.26900
C360        C  0.71115901  0.11840258  0.16884089    -0.15000
C361        C  0.70170111  0.06644484  0.16282861     0.35700
C362        C  0.66224801  0.03232774  0.13379382    -0.26300
C363        C  0.62976584  0.04721363  0.11016817    -0.15600
C364        C  0.63891135  0.09908188  0.11627552     0.36700
N365        N  0.60833910  0.11760570  0.09275386    -0.89800
H366        H  0.67015085  0.16482524  0.91048169     0.17900
H367        H  0.65690139  0.99336864  0.12990429     0.17800
N368        N  0.73270719  0.04799574  0.18581912    -0.88900
H369        H  0.62321458  0.15178393  0.83345671     0.35200
H370        H  0.58953555  0.12650071  0.11689319     0.40300
H371        H  0.74979537  0.03728124  0.16176063     0.39900
H372        H  0.70781031  0.01349531  0.20705170     0.34800
C373        C  0.72786109  0.13863263  0.46717575     0.79600
N374        N  0.74512061  0.11615017  0.50016447    -0.78700
C375        C  0.80316723  0.16196351  0.26653801     0.82100
N376        N  0.82898770  0.21598019  0.25844034    -0.78600
C377        C  0.81815622  0.24092761  0.22327157     0.82200
N378        N  0.74834765  0.19344313  0.46476937    -0.80300
C379        C  0.18599424  0.42680768  0.44328765     0.79600
N380        N  0.17019927  0.40335587  0.48616447    -0.78700
C381        C  0.20370298  0.39391998  0.26074647     0.82100
N382        N  0.25111319  0.40643391  0.24525307    -0.78600
C383        C  0.27038582  0.43140696  0.20374586     0.82200
N384        N  0.24075235  0.44455301  0.17593364    -0.80300
C385        C  0.45629502  0.16217627  0.23670088     0.79600
N386        N  0.42417047  0.15665072  0.27118613    -0.78700
C387        C  0.41300489  0.19164384  0.53168508     0.82100
N388        N  0.42428918  0.23138213  0.49804895    -0.78600
C389        C  0.45736099  0.24142433  0.46224085     0.82200
N390        N  0.47881909  0.20989693  0.46003178    -0.80300
C391        C  0.27385957  0.81549919  0.43543784     0.79600
N392        N  0.27443364  0.84332053  0.46972559    -0.78700
C393        C  0.23276101  0.82306718  0.49829095     0.82100
N394        N  0.20708403  0.77988526  0.23397767    -0.78600
C395        C  0.20840511  0.74834399  0.20390746     0.82200
N396        N  0.23017282  0.76585832  0.42970821    -0.80300
C397        C  0.83696432  0.53932041  0.44503110     0.79600
N398        N  0.78708429  0.51877377  0.19239929    -0.78700
C399        C  0.76370733  0.53471874  0.22193661     0.82100
N400        N  0.79366664  0.57076830  0.25148153    -0.78600
C401        C  0.84586525  0.59133245  0.25306566     0.82200
N402        N  0.86348616  0.57252611  0.47815307    -0.80300
C403        C  0.58357255  0.78785808  0.19489847     0.79600
N404        N  0.55938346  0.73764726  0.41848671    -0.78700
C405        C  0.58746957  0.71366651  0.40913463     0.82100
N406        N  0.63891296  0.73904040  0.41913868    -0.78600
C407        C  0.66325327  0.78719141  0.43623709     0.82200
N408        N  0.63145913  0.80485448  0.21126038    -0.80300
O409        O  0.01053333  0.05719083  0.58908228    -0.88900
C410        C  0.08920402  0.05594645  0.45370446     0.87100
Mg411      Mg  0.93759489  0.99413333  0.57149213     1.58100
O412        O  0.12512710  0.03068944  0.60158113    -0.88700
O413        O  0.08740414  0.10827821  0.55634166    -0.76000
C414        C  0.95534024  0.78711983  0.33840691     0.92200
O415        O  0.96034612  0.00433331  0.43810376    -0.75800
O416        O  0.92373621  0.80244830  0.34582327    -0.83300
Mg417      Mg  0.01966850  0.09118590  0.40842122     1.58000
C418        C  0.15517001  0.90725654  0.60708833     0.92100
O419        O  0.07167333  0.16997262  0.63019471    -0.81600
H420        H  0.15920294  0.05428383  0.53955505    -0.06900
C421        C  0.03885924  0.90200363  0.42383086     0.87000
O422        O  0.97731854  0.96513302  0.52649418    -0.76100
O423        O  0.08469679  0.07732589  0.41735591    -0.88800
O424        O  0.17047349  0.95334091  0.61960015    -0.81700
C425        C  0.24337787  0.11654625  0.40729951     0.92200
C426        C  0.12030028  0.20437398  0.62360575     0.92000
Mg427      Mg  0.04567386  0.89034816  0.58616055     1.58000
O428        O  0.00474299  0.81915379  0.33849368    -0.81600
O429        O  0.10689094  0.97388042  0.55103273    -0.75800
O430        O  0.21181542  0.13218345  0.41465319    -0.81700
O431        O  0.95255341  0.10764188  0.39139349    -0.83400
O432        O  0.86553891  0.85739753  0.55912010    -0.81700
C433        C  0.13177523  0.02141395  0.56319671     0.86500
O434        O  0.98666285  0.90718066  0.57107877    -0.88800
O435        O  0.06912564  0.93111128  0.39188000    -0.88900
O436        O  0.98962462  0.88163343  0.42151517    -0.76000
Mg437      Mg  0.14113964  0.10995172  0.61239996     1.58000
O438        O  0.22823216  0.06711154  0.41472390    -0.83400
H439        H  0.02008781  0.09349979  0.52655634    -0.07100
O440        O  0.94479735  0.95420743  0.38221297    -0.88600
H441        H  0.91010803  0.92323222  0.44362892    -0.06900
H442        H  0.00551829  0.92084279  0.50493531    -0.07100
C443        C  0.93702518  0.95876124  0.42199579     0.86500
C444        C  0.03823407  0.08703783  0.55635169     0.87000
C445        C  0.98968060  0.92973046  0.53299793     0.87100
H446        H  0.05473351  0.89469457  0.45482625    -0.07100
O447        O  0.10941904  0.02676692  0.45570188    -0.76100
Mg448      Mg  0.93464676  0.87990584  0.36506308     1.58000
H449        H  0.07495978  0.06153935  0.48456090    -0.07100
C450        C  0.90773811  0.07467534  0.37635662     0.92100
O451        O  0.86251610  0.93141944  0.54922123    -0.83300
C452        C  0.84619556  0.88394531  0.54059109     0.92100
O453        O  0.15467150  0.19109779  0.62412455    -0.83300
Mg454      Mg  0.14580263  0.99764061  0.40565684     1.58200
O455        O  0.89556804  0.02682750  0.37195315    -0.81600
O456        O  0.10745998  0.87289850  0.60207134    -0.83300
C457        C  0.04086926  0.47291773  0.33736662     0.85900
C458        C  0.07353398  0.52399931  0.30641074    -0.54300
C459        C  0.04696696  0.53823915  0.27649574     0.08800
C460        C  0.98563144  0.49962028  0.28317164     0.19800
C461        C  0.00327650  0.48476210  0.36250449    -0.55100
C462        C  0.97336456  0.49786744  0.33490430     0.08900
C463        C  0.00516129  0.42976493  0.30614334    -0.54600
C464        C  0.97561006  0.44229050  0.27769321     0.09500
H465        H  0.11592675  0.54796125  0.30842952     0.14000
H466        H  0.96254623  0.51078677  0.26003308    -0.00200
H467        H  0.00067947  0.48432085  0.39898381     0.14300
H468        H  0.00200997  0.39091833  0.30810682     0.14100
C469        C  0.53158638  0.92835985  0.28176615     0.85900
C470        C  0.48881897  0.89632006  0.31882941    -0.54300
C471        C  0.47813063  0.92585599  0.34472288     0.08800
C472        C  0.51513390  0.98746644  0.33339567     0.19800
C473        C  0.51656515  0.96643222  0.25565147    -0.55100
C474        C  0.50860157  0.99791028  0.28221894     0.08900
C475        C  0.57964771  0.96650618  0.30987646    -0.54600
C476        C  0.57161058  0.99790830  0.33730235     0.09500
H477        H  0.46710643  0.85300672  0.32352219     0.14000
H478        H  0.50668279  0.01118827  0.35521461    -0.00200
H479        H  0.51329365  0.96874435  0.21903711     0.14300
H480        H  0.61651511  0.96779513  0.30863469     0.14100
C481        C  0.46134916  0.45951595  0.26159665     0.85900
C482        C  0.47347439  0.50180911  0.29469775    -0.54300
C483        C  0.51202685  0.51142175  0.32438652     0.08800
C484        C  0.53413152  0.47365019  0.31978406     0.19800
C485        C  0.51483262  0.47774680  0.23936349    -0.55100
C486        C  0.55282015  0.48335973  0.26905881     0.08900
C487        C  0.44795263  0.40893675  0.29371459    -0.54600
C488        C  0.48507247  0.41532919  0.32486437     0.09500
H489        H  0.45393122  0.52433838  0.29380490     0.14000
H490        H  0.56505243  0.48004661  0.34414341    -0.00200
H491        H  0.52185669  0.48580182  0.20298965     0.14300
H492        H  0.41170365  0.37106969  0.29225715     0.14100
C493        C  0.77367224  0.80491441  0.27433936    -0.26900
C494        C  0.80383449  0.85991611  0.50800129    -0.15000
C495        C  0.78923643  0.89170845  0.47973995     0.35700
C496        C  0.74622986  0.86670177  0.45264041    -0.26300
C497        C  0.71624124  0.81077143  0.45331807    -0.15600
C498        C  0.72688864  0.77596274  0.25136423     0.36700
N499        N  0.69437457  0.71886772  0.26075953    -0.89800
H500        H  0.78523556  0.78316097  0.29841927     0.17900
H501        H  0.73407310  0.89123282  0.43298898     0.17800
N502        N  0.81596303  0.94924121  0.47809339    -0.88900
H503        H  0.68482608  0.71080731  0.29548871     0.35200
H504        H  0.71630352  0.70177678  0.25343974     0.40300
H505        H  0.85565039  0.96572267  0.47025205     0.39900
H506        H  0.81105688  0.96055585  0.50928569     0.34800
C507        C  0.51241419  0.80380340  0.22150275    -0.26900
C508        C  0.56272007  0.82406333  0.20286681    -0.15000
C509        C  0.59849501  0.88078993  0.20241659     0.35700
C510        C  0.58701847  0.91267293  0.22729718    -0.26300
C511        C  0.53872011  0.89164879  0.25035634    -0.15600
C512        C  0.49886800  0.83755282  0.24170409     0.36700
N513        N  0.44387417  0.81697075  0.24788856    -0.89800
H514        H  0.48308728  0.76162025  0.21994142     0.17900
H515        H  0.61649728  0.95481530  0.22838556     0.17800
N516        N  0.56785236  0.86802371  0.38157677    -0.88900
H517        H  0.43619165  0.84741653  0.25151978     0.35200
H518        H  0.42913016  0.78822285  0.27588796     0.40300
H519        H  0.53967651  0.83349367  0.36697191     0.39900
H520        H  0.60478627  0.87427508  0.37419705     0.34800
C521        C  0.60128280  0.64581095  0.37431290    -0.26900
C522        C  0.56540756  0.65966523  0.38971560    -0.15000
C523        C  0.51145722  0.62071888  0.38744201     0.35700
C524        C  0.49534007  0.57111681  0.36988407    -0.26300
C525        C  0.53134964  0.55857538  0.35289099    -0.15600
C526        C  0.58496713  0.59652923  0.35612274     0.36700
N527        N  0.62330141  0.58609417  0.33978642    -0.89800
H528        H  0.64307666  0.67384536  0.37555103     0.17900
H529        H  0.45370212  0.54258911  0.36812266     0.17800
N530        N  0.47187737  0.63022082  0.40200800    -0.88900
H531        H  0.64703709  0.58751130  0.36661823     0.35200
H532        H  0.64699059  0.61676103  0.31496484     0.40300
H533        H  0.47589160  0.66372549  0.38245315     0.39900
H534        H  0.47732650  0.63823943  0.43604662     0.34800
C535        C  0.88218058  0.69214770  0.34001686    -0.26900
C536        C  0.93333912  0.73182143  0.32516181    -0.12100
C537        C  0.94750097  0.70477509  0.56180130     0.35700
C538        C  0.92159357  0.65850951  0.53798939    -0.26300
C539        C  0.87770691  0.63470009  0.28303272    -0.15600
C540        C  0.85447768  0.64361552  0.31979691     0.36700
N541        N  0.80228452  0.60422671  0.33608359    -0.89800
H542        H  0.86271639  0.69965880  0.36637619     0.17900
H543        H  0.94355324  0.65327187  0.51241445     0.17800
N544        N  0.00190210  0.74321435  0.55198381    -0.88900
H545        H  0.77954913  0.62188829  0.33298455     0.35200
H546        H  0.80374872  0.59398367  0.37056635     0.40300
H547        H  0.00684650  0.75538948  0.51723555     0.39900
H548        H  0.02264165  0.72392872  0.55958500     0.34800
C549        C  0.62194749  0.45839663  0.26579716    -0.26900
C550        C  0.60589947  0.49508092  0.25309330    -0.15000
C551        C  0.64017535  0.54170978  0.22442342     0.35700
C552        C  0.68991873  0.55138335  0.21082250    -0.26300
C553        C  0.70627506  0.51500143  0.22424185    -0.15600
C554        C  0.67112971  0.46773142  0.25173145     0.36700
N555        N  0.68542134  0.42949682  0.26745103    -0.89800
H556        H  0.59615652  0.42213721  0.28713523     0.17900
H557        H  0.71713598  0.58880669  0.19124068     0.17800
N558        N  0.62510506  0.57997685  0.21036606    -0.88900
H559        H  0.71913094  0.44887375  0.28643392     0.35200
H560        H  0.69443586  0.41640439  0.23912416     0.40300
H561        H  0.65535588  0.61306034  0.19103490     0.39900
H562        H  0.61979275  0.59476751  0.23938043     0.34800
C563        C  0.85071286  0.47849427  0.39719323    -0.26900
C564        C  0.86854457  0.53030256  0.41052700    -0.15000
C565        C  0.91943708  0.57226639  0.39357028     0.35700
C566        C  0.95059390  0.56139904  0.36621352    -0.26300
C567        C  0.93398502  0.50921191  0.35526658    -0.15600
C568        C  0.88292325  0.46760071  0.37068978     0.36700
N569        N  0.86380105  0.41359532  0.36055634    -0.89800
H570        H  0.81252659  0.44544935  0.40942923     0.17900
H571        H  0.98964287  0.59393735  0.35542754     0.17800
N572        N  0.79668207  0.43411660  0.15210931    -0.88900
H573        H  0.82945887  0.40069241  0.34257679     0.35200
H574        H  0.85353714  0.38938963  0.39121996     0.40300
H575        H  0.77282037  0.44721765  0.13734634     0.39900
H576        H  0.78910188  0.42685782  0.18715045     0.34800
C577        C  0.22710544  0.92821265  0.55608882    -0.26900
C578        C  0.19315069  0.89483542  0.59229213    -0.15000
C579        C  0.18578190  0.84358025  0.60404524     0.35700
C580        C  0.20682716  0.82382730  0.57559824    -0.26300
C581        C  0.23236400  0.85329927  0.53467047    -0.15600
C582        C  0.24596192  0.90744193  0.52628289     0.36700
N583        N  0.27370117  0.94018542  0.48579186    -0.89800
H584        H  0.23306764  0.96785715  0.54734406     0.17900
H585        H  0.26965855  0.93296636  0.22006018     0.17800
N586        N  0.15383021  0.80931235  0.64248462    -0.88900
H587        H  0.25257138  0.92133726  0.45770804     0.35200
H588        H  0.31026689  0.94375194  0.48458410     0.40300
H589        H  0.11501380  0.79868838  0.63770242     0.39900
H590        H  0.16713692  0.83062441  0.67117766     0.34800
C591        C  0.12734322  0.59527336  0.22530581    -0.26900
C592        C  0.07963529  0.58694475  0.24311249    -0.15000
C593        C  0.07169118  0.63033302  0.23765119     0.35700
C594        C  0.11254978  0.68145502  0.21918750    -0.26300
C595        C  0.16257978  0.69119765  0.20680660    -0.15600
C596        C  0.16877001  0.64648070  0.20831317     0.36700
N597        N  0.21793175  0.65243630  0.19672652    -0.89800
H598        H  0.13432910  0.56230596  0.22825074     0.17900
H599        H  0.10637841  0.71490054  0.21806090     0.17800
N600        N  0.02380742  0.62390184  0.25384779    -0.88900
H601        H  0.24647504  0.67903050  0.21774977     0.35200
H602        H  0.22812470  0.66909710  0.16312880     0.40300
H603        H  0.03284735  0.65122380  0.27809759     0.39900
H604        H  0.00712560  0.63411633  0.22655178     0.34800
C605        C  0.35460004  0.81824194  0.41254719    -0.26900
C606        C  0.32298835  0.84046249  0.40766420    -0.15000
C607        C  0.34536022  0.89373749  0.38732300     0.35700
C608        C  0.39702239  0.92204480  0.36956632    -0.26300
C609        C  0.42806485  0.89909382  0.37255462    -0.15600
C610        C  0.40706622  0.84742214  0.39628486     0.36700
N611        N  0.43942043  0.82526251  0.40577453    -0.89800
H612        H  0.35364656  0.78490757  0.15769699     0.17900
H613        H  0.41244655  0.96194453  0.35265246     0.17800
N614        N  0.31601176  0.91986911  0.38527604    -0.88900
H615        H  0.42823421  0.79417359  0.10506386     0.35200
H616        H  0.43983931  0.81832473  0.44100565     0.40300
H617        H  0.31528736  0.93253641  0.35130556     0.39900
H618        H  0.33645946  0.95442048  0.40261445     0.34800
C619        C  0.33829997  0.20182612  0.30947297    -0.26900
C620        C  0.37456561  0.18500741  0.31443204    -0.15000
C621        C  0.36826768  0.14353982  0.60848138     0.35700
C622        C  0.32544711  0.12434741  0.63908171    -0.26300
C623        C  0.29413923  0.15173896  0.38161299    -0.15600
C624        C  0.29783163  0.18492490  0.34237829     0.36700
N625        N  0.25811467  0.19768680  0.33381869    -0.89800
H626        H  0.33877043  0.22465449  0.27843576     0.17900
H627        H  0.31950349  0.09451731  0.66657173     0.17800
N628        N  0.40444047  0.12576965  0.61649338    -0.88900
H629        H  0.24063536  0.18243839  0.30339530     0.35200
H630        H  0.27626508  0.23957122  0.32946407     0.40300
H631        H  0.38359356  0.08377153  0.61766499     0.39900
H632        H  0.42041293  0.13673477  0.64829239     0.34800
C633        C  0.43285691  0.06595754  0.24115656    -0.26900
C634        C  0.47228051  0.12108670  0.23740607    -0.15000
C635        C  0.52455770  0.13471570  0.24488517     0.35700
C636        C  0.53580030  0.09406362  0.25743310    -0.26300
C637        C  0.49596444  0.03937608  0.26352255    -0.15600
C638        C  0.44428125  0.02536357  0.25367106     0.36700
N639        N  0.40298174  0.96995625  0.25743447    -0.89800
H640        H  0.40621548  0.06507611  0.47593056     0.17900
H641        H  0.57592078  0.10545963  0.26374138     0.17800
N642        N  0.56663957  0.18970023  0.24249344    -0.88900
H643        H  0.42798198  0.96420087  0.46393844     0.35200
H644        H  0.38627576  0.96078557  0.22568811     0.40300
H645        H  0.55841801  0.20948376  0.26577899     0.39900
H646        H  0.56823644  0.20748233  0.20990243     0.34800
C647        C  0.52095668  0.36587306  0.37384693    -0.26900
C648        C  0.47764352  0.36994294  0.35987986    -0.15000
C649        C  0.42762982  0.33007584  0.37956484     0.35700
C650        C  0.42258833  0.28829562  0.41122826    -0.26300
C651        C  0.46578139  0.28426097  0.42490231    -0.15600
C652        C  0.51557483  0.32376605  0.40534705     0.36700
N653        N  0.56178959  0.32332256  0.41787802    -0.89800
H654        H  0.55967272  0.39559616  0.36017009     0.17900
H655        H  0.38422614  0.25879473  0.42606142     0.17800
N656        N  0.38193923  0.33283631  0.36897771    -0.88900
H657        H  0.55757636  0.28741176  0.40921203     0.35200
H658        H  0.56513742  0.32446301  0.45304368     0.40300
H659        H  0.38766891  0.36844615  0.38005934     0.39900
H660        H  0.34859870  0.30111890  0.38642675     0.34800
C661        C  0.19630016  0.30778583  0.36470887    -0.26900
C662        C  0.13676766  0.26064829  0.61041875    -0.15000
C663        C  0.10298703  0.27301679  0.58570233     0.35700
C664        C  0.12405122  0.32252651  0.56014635    -0.26300
C665        C  0.17844721  0.35777077  0.55626135    -0.15600
C666        C  0.21721882  0.35332350  0.33383860     0.36700
N667        N  0.27297313  0.38873310  0.32963750    -0.89800
H668        H  0.22290424  0.29893193  0.38321865     0.17900
H669        H  0.09829368  0.32939027  0.53828376     0.17800
N670        N  0.04864526  0.23317199  0.58153928    -0.88900
H671        H  0.28963350  0.36632259  0.32224444     0.35200
H672        H  0.28649540  0.40400090  0.36082461     0.40300
H673        H  0.04189249  0.22602896  0.54735563     0.39900
H674        H  0.02598905  0.24846958  0.59141569     0.34800
C675        C  0.41482974  0.49974348  0.21408724    -0.26900
C676        C  0.41863997  0.45419573  0.22760304    -0.15000
C677        C  0.37853440  0.40448220  0.21305761     0.35700
C678        C  0.33158195  0.39934283  0.19674238    -0.26300
C679        C  0.32398866  0.44320175  0.19292525    -0.15600
C680        C  0.36771953  0.49452426  0.19857654     0.36700
N681        N  0.36377097  0.54140855  0.19301237    -0.89800
H682        H  0.44698727  0.53959487  0.21965307     0.17900
H683        H  0.29894274  0.35956113  0.19133382     0.17800
N684        N  0.38487920  0.35910379  0.21452786    -0.88900
H685        H  0.33495697  0.53653098  0.21574863     0.35200
H686        H  0.35186738  0.54440837  0.16001869     0.40300
H687        H  0.38238767  0.34813094  0.18146318     0.39900
H688        H  0.35359105  0.32695258  0.23379924     0.34800
C689        C  0.07084305  0.44570283  0.41178605    -0.26900
C690        C  0.07701366  0.45788919  0.36469579    -0.15000
C691        C  0.11860185  0.45683954  0.34294375     0.35700
C692        C  0.15435044  0.44804629  0.36854689    -0.26300
C693        C  0.14863560  0.43741970  0.41591520    -0.15600
C694        C  0.10483107  0.43473637  0.43713499     0.36700
N695        N  0.09438139  0.42149655  0.48501071    -0.89800
H696        H  0.04024580  0.44569952  0.43020666     0.17900
H697        H  0.19566037  0.52323388  0.16501984     0.17800
N698        N  0.12875705  0.54849750  0.12677561    -0.88900
H699        H  0.05648842  0.38786802  0.49037492     0.35200
H700        H  0.09586023  0.45381163  0.49880327     0.40300
H701        H  0.12134797  0.43102363  0.28268323     0.39900
H702        H  0.10007920  0.54827742  0.14647231     0.34800
C703        C  0.80191272  0.08190547  0.30750399    -0.26900
C704        C  0.82179018  0.13751387  0.30339043    -0.15000
C705        C  0.86286665  0.16974639  0.33226816     0.35700
C706        C  0.88779004  0.14761939  0.35869073    -0.26300
C707        C  0.87171752  0.09315789  0.35879651    -0.15600
C708        C  0.82549091  0.05922018  0.33556045     0.36700
N709        N  0.80355645  0.00203320  0.33905860    -0.89800
H710        H  0.76899313  0.05606914  0.28748472     0.17900
H711        H  0.92158724  0.17409068  0.37761489     0.17800
N712        N  0.87382067  0.21520391  0.58391926    -0.88900
H713        H  0.77008362  0.98314285  0.31971688     0.35200
H714        H  0.79110516  0.98759268  0.37284154     0.40300
H715        H  0.91157816  0.23515393  0.56915188     0.39900
H716        H  0.87679669  0.22552279  0.61726691     0.34800
C717        C  0.90756326  0.31989987  0.20862594    -0.26900
C718        C  0.85428167  0.30088003  0.21710375    -0.15000
C719        C  0.84191437  0.33524523  0.23711327     0.35700
C720        C  0.88232469  0.38522735  0.25136754    -0.26300
C721        C  0.93534946  0.40040782  0.24854095    -0.15600
C722        C  0.94786710  0.36823846  0.22480540     0.36700
N723        N  0.00147077  0.38244235  0.22059052    -0.89800
H724        H  0.91779314  0.29362607  0.19409929     0.17900
H725        H  0.87177236  0.40951340  0.26870738     0.17800
N726        N  0.78824992  0.31734024  0.24670436    -0.88900
H727        H  0.02217155  0.41952290  0.20133948     0.35200
H728        H  0.00421024  0.35439226  0.20317973     0.40300
H729        H  0.78062046  0.34579717  0.23081781     0.39900
H730        H  0.78333460  0.31644963  0.28171155     0.34800
C731        C  0.65626802  0.11838981  0.40984175    -0.26900
C732        C  0.68867984  0.10317993  0.43316320    -0.15000
C733        C  0.68231657  0.05317762  0.42400705     0.35700
C734        C  0.64531112  0.02084060  0.39253962    -0.26300
C735        C  0.61232219  0.03554310  0.36964885    -0.15600
C736        C  0.61848574  0.08540712  0.37889932     0.36700
N737        N  0.58746762  0.10391888  0.35620240    -0.89800
H738        H  0.68510697  0.17316039  0.14859022     0.17900
H739        H  0.64181159  0.98306130  0.38678140     0.17800
N740        N  0.71376844  0.03476367  0.44617960    -0.88900
H741        H  0.63394359  0.15334715  0.07313283     0.35200
H742        H  0.56655212  0.10951248  0.38083451     0.40300
H743        H  0.73450270  0.02927074  0.42128175     0.39900
H744        H  0.68869443  0.99740280  0.46394670     0.34800
C745        C  0.71941236  0.13303657  0.71831933     0.79600
N746        N  0.73007335  0.10775374  0.75435768    -0.78700
C747        C  0.78075085  0.14642611  0.53079901     0.82100
N748        N  0.79851524  0.19945773  0.52844828    -0.78600
C749        C  0.78336488  0.22373745  0.49630067     0.82200
N750        N  0.74621059  0.18849467  0.71329064    -0.80300
C751        C  0.18197666  0.43134080  0.67662127     0.79600
N752        N  0.15776037  0.40726939  0.71759750    -0.78700
C753        C  0.20028736  0.39201189  0.51349665     0.82100
N754        N  0.24661633  0.40255089  0.49716947    -0.78600
C755        C  0.26435684  0.42553346  0.45474329     0.82200
N756        N  0.23417091  0.43840625  0.42706437    -0.80300
C757        C  0.46655269  0.16878229  0.49309828     0.79600
N758        N  0.43372450  0.16034153  0.52816478    -0.78700
C759        C  0.41615253  0.20947912  0.78631989     0.82100
N760        N  0.42947395  0.25055546  0.75373517    -0.78600
C761        C  0.46157691  0.25984704  0.71755138     0.82200
N762        N  0.48033389  0.22611170  0.71370929    -0.80300
C763        C  0.26900438  0.80897291  0.68449159     0.79600
N764        N  0.26962049  0.84091693  0.71548137    -0.78700
C765        C  0.23023848  0.82219736  0.74667887     0.82100
N766        N  0.18940690  0.77508825  0.49211255    -0.78600
C767        C  0.18657129  0.74616344  0.45783406     0.82200
N768        N  0.22703771  0.75654746  0.68491832    -0.80300
C769        C  0.83961992  0.53948454  0.69640217     0.79600
N770        N  0.78293777  0.51542228  0.44454295    -0.78700
C771        C  0.75727814  0.52563470  0.47697029     0.82100
N772        N  0.78564701  0.55877642  0.50882574    -0.78600
C773        C  0.83816991  0.58203496  0.51042257     0.82200
N774        N  0.86371667  0.57314239  0.72968403    -0.80300
C775        C  0.58485030  0.78764949  0.43534335     0.79600
N776        N  0.55699271  0.75464183  0.66589214    -0.78700
C777        C  0.57748295  0.72188286  0.66192404     0.82100
N778        N  0.62416402  0.73541852  0.68050847    -0.78600
C779        C  0.65035840  0.77984441  0.70292188     0.82200
N780        N  0.63621684  0.81104858  0.44379273    -0.80300
O781        O  0.98387546  0.04884215  0.84185916    -0.88900
C782        C  0.08433455  0.05437839  0.70241679     0.87100
Mg783      Mg  0.90857343  0.97970336  0.83771527     1.58100
O784        O  0.11204955  0.03479423  0.84584504    -0.88700
O785        O  0.05688772  0.09569438  0.80196479    -0.76000
C786        C  0.93908978  0.77041417  0.60498543     0.92200
O787        O  0.95465637  0.99726669  0.68459142    -0.75800
O788        O  0.90770876  0.78736591  0.60419855    -0.83300
Mg789      Mg  0.01408163  0.08313795  0.65407979     1.58000
C790        C  0.15246649  0.91772569  0.84663512     0.92100
O791        O  0.04693100  0.16961655  0.86925254    -0.81600
H792        H  0.14480362  0.05830443  0.78362329    -0.06900
C793        C  0.02261363  0.89466600  0.68315567     0.87000
O794        O  0.94300443  0.95025351  0.78629237    -0.76100
O795        O  0.07873134  0.07113662  0.66441193    -0.88800
O796        O  0.16686169  0.96254003  0.86209210    -0.81700
C797        C  0.23568116  0.10565109  0.65595494     0.92200
C798        C  0.09445760  0.20463648  0.85804923     0.92000
Mg799      Mg  0.03755802  0.89483385  0.83320896     1.58000
O800        O  0.98768093  0.80137671  0.61172807    -0.81600
O801        O  0.09331712  0.97777458  0.79584583    -0.75800
O802        O  0.20545763  0.12329459  0.66159088    -0.81700
O803        O  0.94623554  0.09761749  0.63666287    -0.83400
O804        O  0.85229154  0.84767434  0.82763287    -0.81700
C805        C  0.11816790  0.02535170  0.80756821     0.86500
O806        O  0.97367878  0.90738336  0.82746344    -0.88800
O807        O  0.05377108  0.92146692  0.65101615    -0.88900
O808        O  0.97329694  0.87199958  0.67848023    -0.76000
Mg809      Mg  0.12201665  0.11243327  0.85172644     1.58000
O810        O  0.21809539  0.05567635  0.66356182    -0.83400
H811        H  0.98556330  0.07211633  0.77605988    -0.07100
O812        O  0.93579549  0.94483240  0.62975300    -0.88600
H813        H  0.90305492  0.91651567  0.69180335    -0.06900
H814        H  0.97745757  0.91402524  0.75965092    -0.07100
C815        C  0.92953951  0.95129560  0.66932770     0.86500
C816        C  0.00750701  0.07253147  0.80561260     0.87000
C817        C  0.96520882  0.92307938  0.78997150     0.87100
H818        H  0.03749678  0.89044312  0.71581646    -0.07100
O819        O  0.10258188  0.02369486  0.70758901    -0.76100
Mg820      Mg  0.92138336  0.86784890  0.61760352     1.58000
H821        H  0.07283147  0.06545133  0.73182036    -0.07100
C822        C  0.90175789  0.06548256  0.62054192     0.92100
O823        O  0.82966872  0.90797439  0.83206274    -0.83300
C824        C  0.82319713  0.86614573  0.81659850     0.92100
O825        O  0.13000794  0.19304566  0.85704552    -0.83300
Mg826      Mg  0.13333224  0.98751314  0.66051512     1.58200
O827        O  0.89099072  0.01998422  0.60967296    -0.81600
O828        O  0.10490748  0.88317504  0.84030970    -0.83300
C829        C  0.03631714  0.47201144  0.56616971     0.85900
C830        C  0.06060526  0.51603761  0.52735650    -0.54300
C831        C  0.02840566  0.52949198  0.50525096     0.08800
C832        C  0.96978090  0.49294111  0.52339200     0.19800
C833        C  0.00637975  0.48838885  0.59663588    -0.55100
C834        C  0.97075450  0.49884230  0.57533931     0.08900
C835        C  0.99195417  0.42399810  0.54286374    -0.54600
C836        C  0.95639024  0.43374343  0.52100262     0.09500
H837        H  0.10140447  0.53606752  0.51749431     0.14000
H838        H  0.94251426  0.50224411  0.50484051    -0.00200
H839        H  0.01098779  0.48844928  0.63304253     0.14300
H840        H  0.98717506  0.38445812  0.54510153     0.14100
C841        C  0.53580876  0.92947279  0.52637288     0.85900
C842        C  0.48418526  0.89393419  0.55341705    -0.54300
C843        C  0.46999628  0.91882875  0.58156135     0.08800
C844        C  0.50958785  0.98102851  0.57813094     0.19800
C845        C  0.52730872  0.97258848  0.49972085    -0.55100
C846        C  0.51377666  0.99987410  0.52688331     0.08900
C847        C  0.57731399  0.96248336  0.56106909    -0.54600
C848        C  0.56496089  0.99041159  0.58869321     0.09500
H849        H  0.45886548  0.85198664  0.54741532     0.14000
H850        H  0.49668568  0.00124758  0.59963293    -0.00200
H851        H  0.53181612  0.98158117  0.46321571     0.14300
H852        H  0.61541074  0.96654789  0.56042596     0.14100
C853        C  0.45935781  0.46662285  0.51209224     0.85900
C854        C  0.47544639  0.51643834  0.53724317    -0.54300
C855        C  0.51479734  0.53024848  0.56663355     0.08800
C856        C  0.53424335  0.48933104  0.57031377     0.19800
C857        C  0.51058534  0.47641416  0.49068521    -0.55100
C858        C  0.54996983  0.48749658  0.52066187     0.08900
C859        C  0.44560480  0.42231541  0.55114424    -0.54600
C860        C  0.48412935  0.43249266  0.58186405     0.09500
H861        H  0.45584181  0.53896475  0.53364883     0.14000
H862        H  0.56619165  0.49976523  0.59455284    -0.00200
H863        H  0.51467920  0.47307316  0.45492712     0.14300
H864        H  0.40874704  0.38477363  0.55285188     0.14100
C865        C  0.77677744  0.80408453  0.50497466    -0.26900
C866        C  0.78349647  0.84142306  0.78264748    -0.15000
C867        C  0.78049396  0.87388801  0.74587159     0.35700
C868        C  0.73961233  0.85082966  0.71632448    -0.26300
C869        C  0.70074017  0.79638446  0.72325330    -0.15600
C870        C  0.73291080  0.77918567  0.47794143     0.36700
N871        N  0.70388927  0.72181509  0.47773511    -0.89800
H872        H  0.78805141  0.77922519  0.52522186     0.17900
H873        H  0.73613598  0.87644811  0.68955301     0.17800
N874        N  0.81797575  0.93043116  0.73783137    -0.88900
H875        H  0.69170434  0.70487357  0.51108348     0.35200
H876        H  0.72921335  0.71029143  0.46643685     0.40300
H877        H  0.85546575  0.93645162  0.73759627     0.39900
H878        H  0.81495785  0.95031612  0.76414433     0.34800
C879        C  0.55537331  0.81165871  0.50167391    -0.26900
C880        C  0.55919508  0.81485841  0.45422791    -0.15000
C881        C  0.55888690  0.85861615  0.42974660     0.35700
C882        C  0.55136944  0.89507283  0.45261600    -0.26300
C883        C  0.54815580  0.89227989  0.50062413    -0.15600
C884        C  0.55220419  0.84997772  0.52486533     0.36700
N885        N  0.55567676  0.84538356  0.57331680    -0.89800
H886        H  0.55979476  0.78135474  0.52145320     0.17900
H887        H  0.54912727  0.92616659  0.43218721     0.17800
N888        N  0.66188927  0.91794769  0.69336496    -0.88900
H889        H  0.52252387  0.84022466  0.58940094     0.35200
H890        H  0.58922671  0.87955646  0.58337880     0.40300
H891        H  0.66568413  0.90728836  0.66146065     0.39900
H892        H  0.67926518  0.90531129  0.71824534     0.34800
C893        C  0.55634110  0.67484407  0.59025865    -0.26900
C894        C  0.55230402  0.67131127  0.63782687    -0.15000
C895        C  0.53812148  0.62110544  0.66193705     0.35700
C896        C  0.52704125  0.57628993  0.63855257    -0.26300
C897        C  0.53282111  0.58021281  0.59125907    -0.15600
C898        C  0.54683369  0.63026581  0.56703980     0.36700
N899        N  0.55197986  0.63619924  0.51853362    -0.89800
H900        H  0.56940245  0.71314451  0.57100188     0.17900
H901        H  0.51323539  0.53779413  0.65747697     0.17800
N902        N  0.53504271  0.61458546  0.71054329    -0.88900
H903        H  0.59005681  0.66738067  0.50916467     0.35200
H904        H  0.52615676  0.64773572  0.50571168     0.40300
H905        H  0.50923159  0.62558528  0.72159284     0.39900
H906        H  0.57199496  0.64025464  0.72295554     0.34800
C907        C  0.86642973  0.67564590  0.60283772    -0.26900
C908        C  0.91893798  0.71508898  0.59252631    -0.12100
C909        C  0.94434739  0.70728126  0.81123387     0.35700
C910        C  0.91900417  0.66071973  0.78774613    -0.26300
C911        C  0.86729001  0.62224935  0.54409546    -0.15600
C912        C  0.84051881  0.62933164  0.57939426     0.36700
N913        N  0.78635229  0.59093204  0.59046960    -0.89800
H914        H  0.84432515  0.68239423  0.62723941     0.17900
H915        H  0.94147704  0.65583956  0.76247980     0.17800
N916        N  0.99841977  0.74647149  0.80069206    -0.88900
H917        H  0.76547241  0.61052040  0.58562770     0.35200
H918        H  0.78296714  0.57770494  0.62482923     0.40300
H919        H  0.00264308  0.75815397  0.76586746     0.39900
H920        H  0.02000589  0.72808434  0.80810963     0.34800
C921        C  0.61443039  0.45530426  0.51949558    -0.26900
C922        C  0.60168069  0.49447195  0.50590380    -0.15000
C923        C  0.63805584  0.53973089  0.47717036     0.35700
C924        C  0.68608071  0.54539468  0.46338765    -0.26300
C925        C  0.69982862  0.50721027  0.47790630    -0.15600
C926        C  0.66297114  0.46166666  0.50660776     0.36700
N927        N  0.67479036  0.42224931  0.52466142    -0.89800
H928        H  0.58690575  0.41990661  0.54104441     0.17900
H929        H  0.71472705  0.58192687  0.44358853     0.17800
N930        N  0.62764900  0.58178163  0.46467325    -0.88900
H931        H  0.70851634  0.44128158  0.54367882     0.35200
H932        H  0.68286718  0.40682667  0.49746970     0.40300
H933        H  0.59492254  0.56606124  0.44446995     0.39900
H934        H  0.65877269  0.61335771  0.44480005     0.34800
C935        C  0.85190991  0.50238159  0.62478629    -0.26900
C936        C  0.87345912  0.53151460  0.66314837    -0.15000
C937        C  0.92850090  0.55358241  0.66850673     0.35700
C938        C  0.95788664  0.54303596  0.63917604    -0.26300
C939        C  0.93618851  0.51212274  0.60224476    -0.15600
C940        C  0.88249540  0.49336705  0.59425501     0.36700
N941        N  0.85805687  0.46444518  0.55572594    -0.89800
H942        H  0.81086408  0.48635680  0.61817689     0.17900
H943        H  0.99920861  0.56027403  0.64538232     0.17800
N944        N  0.94151064  0.62671971  0.40400400    -0.88900
H945        H  0.84489421  0.48606795  0.53580922     0.35200
H946        H  0.82487738  0.42774112  0.56733366     0.40300
H947        H  0.95011772  0.62904375  0.43830310     0.39900
H948        H  0.91399845  0.63799383  0.39748316     0.34800
C949        C  0.21992123  0.93312672  0.79175956    -0.26900
C950        C  0.19121985  0.90569612  0.83195272    -0.15000
C951        C  0.18775066  0.85761408  0.84904791     0.35700
C952        C  0.20674103  0.83368840  0.82250187    -0.26300
C953        C  0.22853708  0.85706862  0.77888828    -0.15600
C954        C  0.23824720  0.90910422  0.76477666     0.36700
N955        N  0.26262049  0.93671487  0.72186744    -0.89800
H956        H  0.22276063  0.97038066  0.77864179     0.17900
H957        H  0.19786845  0.78285315  0.58281244     0.17800
N958        N  0.16179887  0.83136884  0.89196462    -0.88900
H959        H  0.24086345  0.91274241  0.69613817     0.35200
H960        H  0.30004753  0.94266636  0.72137951     0.40300
H961        H  0.18829645  0.82705192  0.91265631     0.39900
H962        H  0.13056210  0.79290983  0.88664221     0.34800
C963        C  0.04791721  0.62346779  0.48486155    -0.26900
C964        C  0.05499303  0.58171993  0.47477420    -0.15000
C965        C  0.09992978  0.59610176  0.44737643     0.35700
C966        C  0.14048968  0.65026363  0.43855107    -0.26300
C967        C  0.13741452  0.69163387  0.45559942    -0.15600
C968        C  0.08814742  0.67786256  0.47556207     0.36700
N969        N  0.07780426  0.71785181  0.48788966    -0.89800
H970        H  0.01341853  0.61406607  0.50445203     0.17900
H971        H  0.17621651  0.65929895  0.42130295     0.17800
N972        N  0.10671184  0.55541881  0.43126776    -0.88900
H973        H  0.08820271  0.74688585  0.46044705     0.35200
H974        H  0.09944577  0.73574262  0.51602142     0.40300
H975        H  0.11165557  0.56267834  0.39599291     0.39900
H976        H  0.14143788  0.55978451  0.44401356     0.34800
C977        C  0.34219935  0.80628544  0.64592788    -0.26900
C978        C  0.31593082  0.83336119  0.65249791    -0.15000
C979        C  0.34024456  0.88793468  0.63465551     0.35700
C980        C  0.39012973  0.91458697  0.61295934    -0.26300
C981        C  0.41747896  0.88843928  0.60735669    -0.15600
C982        C  0.39234264  0.83296160  0.62393613     0.36700
N983        N  0.41789071  0.80345137  0.62010369    -0.89800
H984        H  0.33952274  0.77933951  0.43146091     0.17900
H985        H  0.40695397  0.95616638  0.59978254     0.17800
N986        N  0.31420209  0.91696471  0.63793023    -0.88900
H987        H  0.42205940  0.78807335  0.39222718     0.35200
H988        H  0.41973480  0.78739266  0.65245636     0.40300
H989        H  0.30954265  0.92942463  0.60498953     0.39900
H990        H  0.33936484  0.95180514  0.65365005     0.34800
C991        C  0.34076811  0.19901959  0.56642617    -0.26900
C992        C  0.37458877  0.17892358  0.56987275    -0.15000
C993        C  0.36317625  0.15581937  0.85887115     0.35700
C994        C  0.31795108  0.13690508  0.88636142    -0.26300
C995        C  0.28853285  0.14009441  0.63292314    -0.15600
C996        C  0.29809310  0.18004844  0.59741799     0.36700
N997        N  0.26253108  0.19873767  0.59057270    -0.89800
H998        H  0.34539858  0.22729095  0.53802349     0.17900
H999        H  0.30652998  0.10286777  0.91117456     0.17800
N1000       N  0.39383075  0.13131732  0.86620001    -0.88900
H1001       H  0.24736226  0.19015477  0.55823498     0.35200
H1002       H  0.28380749  0.24054781  0.59138875     0.40300
H1003       H  0.36967794  0.09020301  0.86258064     0.39900
H1004       H  0.40613862  0.13553154  0.89964509     0.34800
C1005       C  0.44529385  0.07506824  0.48526989    -0.26900
C1006       C  0.48374160  0.12903768  0.49075911    -0.15000
C1007       C  0.53430114  0.14069659  0.50331405     0.35700
C1008       C  0.54421610  0.09852867  0.51260501    -0.26300
C1009       C  0.50474349  0.04432079  0.50951039    -0.15600
C1010       C  0.45542656  0.03315071  0.49385532     0.36700
N1011       N  0.41443092  0.97930153  0.48746594    -0.89800
H1012       H  0.40065172  0.07758132  0.74252814     0.17900
H1013       H  0.58256961  0.10801667  0.52381189     0.17800
N1014       N  0.57557988  0.19470376  0.50877590    -0.88900
H1015       H  0.38047095  0.98553901  0.78071731     0.35200
H1016       H  0.40626278  0.95565270  0.51818880     0.40300
H1017       H  0.56340500  0.20993031  0.53331486     0.39900
H1018       H  0.58164705  0.21783679  0.47796821     0.34800
C1019       C  0.52327044  0.38734114  0.63253861    -0.26900
C1020       C  0.47884835  0.38949470  0.61860352    -0.15000
C1021       C  0.42931003  0.34797694  0.63791912     0.35700
C1022       C  0.42545965  0.30563305  0.66786666    -0.26300
C1023       C  0.46953388  0.30309325  0.68105168    -0.15600
C1024       C  0.51915082  0.34511488  0.66322490     0.36700
N1025       N  0.56616994  0.34683006  0.67661470    -0.89800
H1026       H  0.56173682  0.41834749  0.61917838     0.17900
H1027       H  0.38725776  0.27443752  0.68188130     0.17800
N1028       N  0.38268344  0.34910271  0.62806506    -0.88900
H1029       H  0.56399791  0.31199387  0.66755076     0.35200
H1030       H  0.56802843  0.34676534  0.71192841     0.40300
H1031       H  0.38592937  0.38217085  0.64226843     0.39900
H1032       H  0.34916536  0.31440889  0.64216841     0.34800
C1033       C  0.18963015  0.30071497  0.61378833    -0.26900
C1034       C  0.10884569  0.26000656  0.84304384    -0.15000
C1035       C  0.07772838  0.27020962  0.81245452     0.35700
C1036       C  0.09997434  0.32035286  0.78725413    -0.26300
C1037       C  0.15315108  0.35923324  0.79139632    -0.15600
C1038       C  0.21095837  0.34916826  0.58638048     0.36700
N1039       N  0.26626166  0.38713729  0.58603156    -0.89800
H1040       H  0.21557953  0.29231893  0.63394334     0.17900
H1041       H  0.07754447  0.32586206  0.76055708     0.17800
N1042       N  0.02555704  0.22835294  0.80359077    -0.88900
H1043       H  0.28569340  0.36784725  0.57737222     0.35200
H1044       H  0.27645753  0.39839441  0.61885611     0.40300
H1045       H  0.02391753  0.22219784  0.76916175     0.39900
H1046       H  0.00017292  0.24173820  0.80996384     0.34800
C1047       C  0.40915627  0.49824598  0.45925897    -0.26900
C1048       C  0.41477290  0.45536866  0.47824718    -0.15000
C1049       C  0.37467973  0.40274921  0.46922183     0.35700
C1050       C  0.32650411  0.39408242  0.45249965    -0.26300
C1051       C  0.31764970  0.43682231  0.44331848    -0.15600
C1052       C  0.36110697  0.48953437  0.44287215     0.36700
N1053       N  0.35630867  0.53501986  0.42966366    -0.89800
H1054       H  0.44100140  0.53933409  0.46046247     0.17900
H1055       H  0.29379003  0.35317023  0.45140669     0.17800
N1056       N  0.38183051  0.35800982  0.47877380    -0.88900
H1057       H  0.32821081  0.53398225  0.45092091     0.35200
H1058       H  0.34301891  0.53160683  0.39649682     0.40300
H1059       H  0.41436703  0.36576936  0.45955722     0.39900
H1060       H  0.34954266  0.32258274  0.46881186     0.34800
C1061       C  0.06117984  0.41111724  0.61358881    -0.26900
C1062       C  0.07757637  0.46247362  0.59202812    -0.15000
C1063       C  0.13169118  0.50342930  0.59705714     0.35700
C1064       C  0.16651195  0.49104303  0.62021647    -0.26300
C1065       C  0.14925387  0.43983704  0.64160687    -0.15600
C1066       C  0.09576416  0.39969609  0.63790539     0.36700
N1067       N  0.07564161  0.34689651  0.66016131    -0.89800
H1068       H  0.02049289  0.37928794  0.61301344     0.17900
H1069       H  0.18630800  0.44891040  0.35105458     0.17800
N1070       N  0.12516598  0.46542163  0.29454676    -0.88900
H1071       H  0.05849238  0.31940050  0.63579638     0.35200
H1072       H  0.04598796  0.33914300  0.68328292     0.40300
H1073       H  0.18235074  0.57037202  0.55757906     0.39900
H1074       H  0.16308873  0.49774381  0.28625358     0.34800
C1075       C  0.78648998  0.06877615  0.56704252    -0.26900
C1076       C  0.80613333  0.12429637  0.56239722    -0.15000
C1077       C  0.85263301  0.15839773  0.58530530     0.35700
C1078       C  0.88039875  0.13726392  0.60806742    -0.26300
C1079       C  0.86347806  0.08264714  0.60888130    -0.15600
C1080       C  0.81408849  0.04745154  0.59040227     0.36700
N1081       N  0.79278065  0.99034008  0.59395347    -0.89800
H1082       H  0.75017181  0.04188213  0.55121042     0.17900
H1083       H  0.91747412  0.16480213  0.62255851     0.17800
N1084       N  0.83694036  0.19694560  0.85804962    -0.88900
H1085       H  0.75691535  0.97049693  0.57794942     0.35200
H1086       H  0.78495946  0.97660378  0.62837417     0.40300
H1087       H  0.87660926  0.22292790  0.84903315     0.39900
H1088       H  0.83188292  0.19938315  0.89243195     0.34800
C1089       C  0.85565907  0.31079898  0.46060202    -0.26900
C1090       C  0.81451030  0.28386973  0.49318509    -0.15000
C1091       C  0.81768923  0.31061410  0.53183521     0.35700
C1092       C  0.86245462  0.36134755  0.53832077    -0.26300
C1093       C  0.90497113  0.38714338  0.50687041    -0.15600
C1094       C  0.90090610  0.36101818  0.46758213     0.36700
N1095       N  0.94436909  0.38275119  0.43631686    -0.89800
H1096       H  0.85549729  0.29008224  0.43188742     0.17900
H1097       H  0.86595753  0.37826945  0.57022827     0.17800
N1098       N  0.77704572  0.28435411  0.56642793    -0.88900
H1099       H  0.93126582  0.38593337  0.40392816     0.35200
H1100       H  0.95635501  0.35496931  0.43616077     0.40300
H1101       H  0.76253041  0.30940353  0.57099363     0.39900
H1102       H  0.79370088  0.28037649  0.59674110     0.34800
C1103       C  0.64084629  0.10696467  0.66828403    -0.26900
C1104       C  0.68146149  0.09929549  0.68348165    -0.15000
C1105       C  0.68445571  0.05724134  0.66652569     0.35700
C1106       C  0.64595083  0.02255561  0.63714880    -0.26300
C1107       C  0.60422354  0.02897725  0.62195560    -0.15600
C1108       C  0.60293239  0.07307628  0.63784297     0.36700
N1109       N  0.56416014  0.08506738  0.62289824    -0.89800
H1110       H  0.65972044  0.15608567  0.41596200     0.17900
H1111       H  0.64876630  0.98964086  0.62672652     0.17800
N1112       N  0.72726558  0.05009175  0.67896709    -0.88900
H1113       H  0.61284464  0.14135510  0.33867269     0.35200
H1114       H  0.54298703  0.08321769  0.65144594     0.40300
H1115       H  0.76191463  0.08500636  0.66683737     0.39900
H1116       H  0.72532127  0.01891023  0.66255036     0.34800
C1117       C  0.73242514  0.14001493  0.96307700     0.79600
N1118       N  0.74414181  0.11528305  0.99866823    -0.78700
C1119       C  0.76559702  0.13657108  0.78566215     0.82100
N1120       N  0.79079207  0.19064618  0.77990972    -0.78600
C1121       C  0.78208253  0.21723061  0.74477876     0.82200
N1122       N  0.76013848  0.19546902  0.95724011    -0.80300
C1123       C  0.18691262  0.42805949  0.93719203     0.79600
N1124       N  0.16485919  0.40188457  0.97837547    -0.78700
C1125       C  0.18258818  0.39627743  0.75135047     0.82100
N1126       N  0.23203960  0.40848528  0.74365690    -0.78600
C1127       C  0.25819912  0.43234880  0.70369329     0.82200
N1128       N  0.23308070  0.44427531  0.66920270    -0.80300
C1129       C  0.46655999  0.18392120  0.74621961     0.79600
N1130       N  0.43440408  0.17625560  0.78166260    -0.78700
C1131       C  0.40303807  0.18202018  0.02335477     0.82100
N1132       N  0.41584354  0.22401757  0.99189345    -0.78600
C1133       C  0.45283632  0.23927355  0.95828309     0.82200
N1134       N  0.47652635  0.20991630  0.95560062    -0.80300
C1135       C  0.28148745  0.81071406  0.94440180     0.79600
N1136       N  0.27975776  0.83772208  0.97867915    -0.78700
C1137       C  0.23869618  0.81448175  0.00861222     0.82100
N1138       N  0.18927782  0.77118840  0.74651544    -0.78600
C1139       C  0.18587386  0.73773338  0.71600076     0.82200
N1140       N  0.24020936  0.75909185  0.93965502    -0.80300
C1141       C  0.83885090  0.53555661  0.94717546     0.79600
N1142       N  0.78574099  0.51487385  0.69400834    -0.78700
C1143       C  0.75806632  0.52442172  0.72491147     0.82100
N1144       N  0.78431926  0.55814788  0.75718043    -0.78600
C1145       C  0.83682414  0.58245205  0.76038868     0.82200
N1146       N  0.86231086  0.56824502  0.98104539    -0.80300
C1147       C  0.58454203  0.80035541  0.68902457     0.79600
N1148       N  0.56260148  0.74049064  0.91549596    -0.78700
C1149       C  0.58939915  0.71517729  0.90608672     0.82100
N1150       N  0.64107441  0.73983394  0.91525643    -0.78600
C1151       C  0.66703689  0.78847350  0.93145584     0.82200
N1152       N  0.62999594  0.81070249  0.70732916    -0.80300
O1153       O  0.99483408  0.04496862  0.09289719    -0.88900
C1154       C  0.07799115  0.06363210  0.94695748     0.87100
Mg1155     Mg  0.91990781  0.97979262  0.08173595     1.58100
O1156       O  0.11573852  0.02190484  0.10296737    -0.88700
O1157       O  0.07038090  0.09206186  0.05699104    -0.76000
C1158       C  0.93602601  0.77170531  0.85719518     0.92200
O1159       O  0.94877009  0.00020664  0.94374362    -0.75800
O1160       O  0.90359051  0.78616509  0.86375531    -0.83300
Mg1161     Mg  0.99864274  0.08411426  0.90401597     1.58000
C1162       C  0.14969521  0.90010084  0.10746313     0.92100
O1163       O  0.05885926  0.16225987  0.12452186    -0.81600
H1164       H  0.15004745  0.04623385  0.04106942    -0.06900
C1165       C  0.02534361  0.89839863  0.93324530     0.87000
O1166       O  0.95834609  0.95122296  0.03432491    -0.76100
O1167       O  0.06779988  0.07756808  0.90952690    -0.88800
O1168       O  0.16423858  0.94459145  0.12333505    -0.81700
C1169       C  0.22820482  0.12205645  0.89364543     0.92200
C1170       C  0.10724841  0.19607704  0.11550524     0.92000
Mg1171     Mg  0.03857219  0.88336696  0.08851319     1.58000
O1172       O  0.98518804  0.80468704  0.85889652    -0.81600
O1173       O  0.09801139  0.96586189  0.05215647    -0.75800
O1174       O  0.19784877  0.14065001  0.89213462    -0.81700
O1175       O  0.92598489  0.09195063  0.89304807    -0.83400
O1176       O  0.86062072  0.84954948  0.06372308    -0.81700
C1177       C  0.12278872  0.01309230  0.06459734     0.86500
O1178       O  0.97893328  0.90098195  0.07801006    -0.88800
O1179       O  0.05144228  0.92621191  0.89895609    -0.88900
O1180       O  0.97548439  0.87379357  0.93416120    -0.76000
Mg1181     Mg  0.12951827  0.10086802  0.11033895     1.58000
O1182       O  0.21004290  0.07181910  0.90095012    -0.83400
H1183       H  0.00170691  0.07450697  0.02829708    -0.07100
O1184       O  0.92567990  0.94118702  0.89378100    -0.88600
H1185       H  0.90410848  0.91915700  0.95927765    -0.06900
H1186       H  0.99302695  0.91369934  0.01124764    -0.07100
C1187       C  0.92511015  0.95180590  0.93320110     0.86500
C1188       C  0.02117420  0.07105106  0.05836774     0.87000
C1189       C  0.97720635  0.92109065  0.04006033     0.87100
H1190       H  0.04528331  0.89529097  0.96310910    -0.07100
O1191       O  0.09784645  0.03420552  0.95129180    -0.76100
Mg1192     Mg  0.91495047  0.86489595  0.88024637     1.58000
H1193       H  0.06881133  0.07600319  0.97674242    -0.07100
C1194       C  0.87926881  0.05535773  0.88506454     0.92100
O1195       O  0.84170631  0.91246304  0.06760720    -0.83300
C1196       C  0.83589520  0.87230763  0.04958691     0.92100
O1197       O  0.14168159  0.18279062  0.11735414    -0.83300
Mg1198     Mg  0.12870926  0.99771615  0.90346578     1.58200
O1199       O  0.86801800  0.00727984  0.88365005    -0.81600
O1200       O  0.10236634  0.86698433  0.09929391    -0.83300
C1201       C  0.03560098  0.45775347  0.82729254     0.85900
C1202       C  0.05994978  0.50012088  0.78712672    -0.54300
C1203       C  0.02840890  0.51529507  0.76636232     0.08800
C1204       C  0.97007512  0.47971478  0.78468208     0.19800
C1205       C  0.00728768  0.47649009  0.85756268    -0.55100
C1206       C  0.97133443  0.48647221  0.83620758     0.08900
C1207       C  0.99038092  0.40945082  0.80534667    -0.54600
C1208       C  0.95582237  0.42025409  0.78301132     0.09500
H1209       H  0.10072263  0.51907694  0.77661737     0.14000
H1210       H  0.94329196  0.48914112  0.76559985    -0.00200
H1211       H  0.01348310  0.47860986  0.89374143     0.14300
H1212       H  0.98524266  0.36977605  0.80721880     0.14100
C1213       C  0.53415601  0.94394375  0.77318966     0.85900
C1214       C  0.48860426  0.90866805  0.80732622    -0.54300
C1215       C  0.47744073  0.93528224  0.83642253     0.08800
C1216       C  0.51576306  0.99764883  0.82956029     0.19800
C1217       C  0.52183323  0.98525470  0.74966962    -0.55100
C1218       C  0.51286305  0.01396388  0.77871666     0.08900
C1219       C  0.58032199  0.97758459  0.80469573    -0.54600
C1220       C  0.57166210  0.00656695  0.83398037     0.09500
H1221       H  0.46586597  0.86531184  0.80783406     0.14000
H1222       H  0.50710658  0.01972617  0.85318915    -0.00200
H1223       H  0.52111176  0.99176315  0.71305305     0.14300
H1224       H  0.61687061  0.97821704  0.80440307     0.14100
C1225       C  0.45411936  0.45311407  0.76124181     0.85900
C1226       C  0.47171262  0.50199118  0.78822501    -0.54300
C1227       C  0.51233868  0.51487555  0.81647685     0.08800
C1228       C  0.53326527  0.47561707  0.81505318     0.19800
C1229       C  0.50499065  0.46523799  0.73632065    -0.55100
C1230       C  0.54656228  0.47648756  0.76408879     0.08900
C1231       C  0.44409692  0.40815939  0.79881339    -0.54600
C1232       C  0.48463168  0.41879714  0.82697258     0.09500
H1233       H  0.45283368  0.52520479  0.78498545     0.14000
H1234       H  0.56605531  0.48423826  0.83781367    -0.00200
H1235       H  0.50705659  0.46253168  0.70018038     0.14300
H1236       H  0.40805546  0.37031974  0.80404355     0.14100
C1237       C  0.74808336  0.78562109  0.78642656    -0.26900
C1238       C  0.80029271  0.85287046  0.01133948    -0.15000
C1239       C  0.78881105  0.88751751  0.98372786     0.35700
C1240       C  0.74945668  0.86604930  0.95256568    -0.26300
C1241       C  0.72003963  0.81067090  0.94880825    -0.15600
C1242       C  0.70625782  0.76291909  0.75681941     0.36700
N1243       N  0.66775491  0.70677831  0.76254253    -0.89800
H1244       H  0.75110962  0.76027854  0.81375243     0.17900
H1245       H  0.73863653  0.89237705  0.93410066     0.17800
N1246       N  0.81487598  0.94433250  0.98714001    -0.88900
H1247       H  0.65138129  0.69816051  0.79527312     0.35200
H1248       H  0.68688367  0.68574899  0.75961283     0.40300
H1249       H  0.85535671  0.96101004  0.98529067     0.39900
H1250       H  0.80438952  0.95119836  0.01799832     0.34800
C1251       C  0.51613565  0.82529319  0.70565361    -0.26900
C1252       C  0.56852130  0.84053535  0.69779710    -0.15000
C1253       C  0.60759156  0.89483844  0.70516687     0.35700
C1254       C  0.59462644  0.92796238  0.72584301    -0.26300
C1255       C  0.54328967  0.91042964  0.73984833    -0.15600
C1256       C  0.50300030  0.86040033  0.72415761     0.36700
N1257       N  0.44884212  0.84480475  0.72424882    -0.89800
H1258       H  0.48518663  0.78550868  0.69832896     0.17900
H1259       H  0.62612634  0.96779441  0.73223149     0.17800
N1260       N  0.56878734  0.86769003  0.87628868    -0.88900
H1261       H  0.44377624  0.87610403  0.73160134     0.35200
H1262       H  0.42802024  0.81191443  0.74830074     0.40300
H1263       H  0.53917820  0.83195314  0.86425839     0.39900
H1264       H  0.60491412  0.87305844  0.86705451     0.34800
C1265       C  0.60090688  0.64417271  0.87465062    -0.26900
C1266       C  0.56611536  0.66102465  0.88648740    -0.15000
C1267       C  0.51230127  0.62555259  0.87906225     0.35700
C1268       C  0.49566139  0.57700417  0.85929795    -0.26300
C1269       C  0.53123699  0.56245054  0.84468603    -0.15600
C1270       C  0.58440007  0.59659387  0.85355626     0.36700
N1271       N  0.62242036  0.58425242  0.84003768    -0.89800
H1272       H  0.64242608  0.66892514  0.88032847     0.17900
H1273       H  0.45406977  0.55075658  0.85476272     0.17800
N1274       N  0.47343193  0.63735273  0.89088377    -0.88900
H1275       H  0.64192807  0.58131304  0.86874458     0.35200
H1276       H  0.65012332  0.61598130  0.81805239     0.40300
H1277       H  0.48165072  0.67316323  0.87248340     0.39900
H1278       H  0.47536743  0.64234215  0.92555994     0.34800
C1279       C  0.86278486  0.67711862  0.85189273    -0.26900
C1280       C  0.91555601  0.71695449  0.84234470    -0.12100
C1281       C  0.94346283  0.69640303  0.06812279     0.35700
C1282       C  0.91782970  0.65148659  0.04279896    -0.26300
C1283       C  0.86476773  0.62376110  0.79359980    -0.15600
C1284       C  0.83728979  0.63090137  0.82812514     0.36700
N1285       N  0.78294439  0.59241711  0.83833210    -0.89800
H1286       H  0.84015170  0.68325724  0.87620811     0.17900
H1287       H  0.94087162  0.64567208  0.01881685     0.17800
N1288       N  0.99891098  0.73263171  0.06178597    -0.88900
H1289       H  0.76210909  0.61201052  0.83296641     0.35200
H1290       H  0.77881105  0.57889817  0.87269113     0.40300
H1291       H  0.00711558  0.74638985  0.02736548     0.39900
H1292       H  0.01731961  0.71113779  0.07026952     0.34800
C1293       C  0.61309884  0.44728648  0.76138991    -0.26900
C1294       C  0.59848712  0.48491800  0.74741405    -0.15000
C1295       C  0.63530601  0.53155655  0.71987556     0.35700
C1296       C  0.68480717  0.54001550  0.70810504    -0.26300
C1297       C  0.70030956  0.50364932  0.72374099    -0.15600
C1298       C  0.66344091  0.45667819  0.75089035     0.36700
N1299       N  0.67709447  0.41911190  0.77018579    -0.89800
H1300       H  0.58565915  0.41077538  0.78164440     0.17900
H1301       H  0.71298261  0.57751598  0.68912954     0.17800
N1302       N  0.62465987  0.57264717  0.70522268    -0.88900
H1303       H  0.70921900  0.43926650  0.79078140     0.35200
H1304       H  0.68845452  0.40546702  0.74372866     0.40300
H1305       H  0.61559139  0.58528198  0.73380538     0.39900
H1306       H  0.59196369  0.55545103  0.68514502     0.34800
C1307       C  0.85258718  0.49476176  0.87906885    -0.26900
C1308       C  0.87291306  0.52452925  0.91707358    -0.15000
C1309       C  0.92714630  0.54439864  0.92523269     0.35700
C1310       C  0.95662250  0.53073221  0.89913375    -0.26300
C1311       C  0.93625259  0.50006668  0.86193843    -0.15600
C1312       C  0.88354468  0.48353132  0.85119239     0.36700
N1313       N  0.86044661  0.45514226  0.81216833    -0.89800
H1314       H  0.81232236  0.48036195  0.87039786     0.17900
H1315       H  0.99722921  0.54641947  0.90741295     0.17800
N1316       N  0.95719432  0.58807421  0.70298986    -0.88900
H1317       H  0.85094146  0.47872823  0.79041528     0.35200
H1318       H  0.82524511  0.41988522  0.82269930     0.40300
H1319       H  0.94193443  0.56768847  0.73489473     0.39900
H1320       H  0.95527211  0.62280869  0.69815439     0.34800
C1321       C  0.22327765  0.91928505  0.05818917    -0.26900
C1322       C  0.18846262  0.88739986  0.09437373    -0.15000
C1323       C  0.18218100  0.83721496  0.10905881     0.35700
C1324       C  0.20498104  0.81650674  0.08334064    -0.26300
C1325       C  0.23329251  0.84491237  0.04289140    -0.15600
C1326       C  0.24549962  0.89817095  0.03190544     0.36700
N1327       N  0.27593933  0.92891992  0.99177533    -0.89800
H1328       H  0.22849769  0.95815391  0.04712959     0.17900
H1329       H  0.20051222  0.79462013  0.83446093     0.17800
N1330       N  0.15069884  0.80553214  0.14854112    -0.88900
H1331       H  0.30786987  0.96489118  0.00127500     0.35200
H1332       H  0.25287095  0.93836587  0.97073450     0.40300
H1333       H  0.11199013  0.79516725  0.14362948     0.39900
H1334       H  0.16473128  0.82912651  0.17594939     0.34800
C1335       C  0.05298292  0.61172975  0.75745492    -0.26900
C1336       C  0.05609848  0.57030717  0.74060670    -0.15000
C1337       C  0.09723631  0.58493165  0.70885653     0.35700
C1338       C  0.13750775  0.63946599  0.69881369    -0.26300
C1339       C  0.13765697  0.68100790  0.71959688    -0.15600
C1340       C  0.09183990  0.66618201  0.74669050     0.36700
N1341       N  0.08307810  0.70494894  0.76453775    -0.89800
H1342       H  0.02192878  0.60178158  0.78185978     0.17900
H1343       H  0.17006530  0.64878177  0.67652796     0.17800
N1344       N  0.09917493  0.54363686  0.68816458    -0.88900
H1345       H  0.08790586  0.73373738  0.73837150     0.35200
H1346       H  0.10880954  0.72288299  0.79055731     0.40300
H1347       H  0.09630961  0.55032613  0.65342803     0.39900
H1348       H  0.13557893  0.54771976  0.69427577     0.34800
C1349       C  0.36334282  0.82115726  0.91160115    -0.26900
C1350       C  0.32900695  0.83999102  0.91347096    -0.15000
C1351       C  0.34589592  0.89243506  0.89333628     0.35700
C1352       C  0.39537606  0.92401640  0.87071074    -0.26300
C1353       C  0.42929252  0.90470449  0.86757352    -0.15600
C1354       C  0.41315461  0.85298126  0.88958062     0.36700
N1355       N  0.44785431  0.83300316  0.89107719    -0.89800
H1356       H  0.32501296  0.76487550  0.65993164     0.17900
H1357       H  0.40666424  0.96336758  0.85458795     0.17800
N1358       N  0.31249741  0.91376435  0.89546941    -0.88900
H1359       H  0.39436839  0.77111741  0.60099576     0.35200
H1360       H  0.45319490  0.82476295  0.92514614     0.40300
H1361       H  0.30551481  0.92321610  0.86223563     0.39900
H1362       H  0.33278132  0.94961147  0.91108442     0.34800
C1363       C  0.34743174  0.22229778  0.82027436    -0.26900
C1364       C  0.37651224  0.19679684  0.82322941    -0.15000
C1365       C  0.35774461  0.13329648  0.10005355     0.35700
C1366       C  0.31607372  0.11577590  0.13169689    -0.26300
C1367       C  0.28471634  0.15730163  0.87898872    -0.15600
C1368       C  0.30180271  0.20288811  0.84744101     0.36700
N1369       N  0.27082905  0.22700758  0.84002759    -0.89800
H1370       H  0.35770569  0.25507254  0.79444237     0.17900
H1371       H  0.31105919  0.08721556  0.16001576     0.17800
N1372       N  0.39426445  0.11600555  0.10811269    -0.88900
H1373       H  0.26018884  0.22455775  0.80606412     0.35200
H1374       H  0.29416885  0.26766080  0.84549155     0.40300
H1375       H  0.37349075  0.07394332  0.11069637     0.39900
H1376       H  0.41131145  0.12852594  0.13928975     0.34800
C1377       C  0.44089413  0.08776713  0.74586420    -0.26900
C1378       C  0.48141937  0.14236520  0.74329409    -0.15000
C1379       C  0.53358382  0.15414899  0.74725139     0.35700
C1380       C  0.54348433  0.11192918  0.75649659    -0.26300
C1381       C  0.50232668  0.05770212  0.76273059    -0.15600
C1382       C  0.45097755  0.04580628  0.75508289     0.36700
N1383       N  0.40876094  0.99093158  0.75708953    -0.89800
H1384       H  0.40661868  0.05869484  0.98296949     0.17900
H1385       H  0.58350778  0.12164824  0.76015098     0.17800
N1386       N  0.57692606  0.20854053  0.74421520    -0.88900
H1387       H  0.39748668  0.97046819  0.01893113     0.35200
H1388       H  0.39202988  0.98424590  0.72524067     0.40300
H1389       H  0.57153237  0.22857026  0.76918896     0.39900
H1390       H  0.57669028  0.22710875  0.71248222     0.34800
C1391       C  0.52051182  0.36685950  0.87232127    -0.26900
C1392       C  0.47981467  0.37719001  0.86440792    -0.15000
C1393       C  0.43208783  0.34368725  0.88950091     0.35700
C1394       C  0.42480749  0.29930766  0.91859957    -0.26300
C1395       C  0.46428118  0.28685244  0.92486842    -0.15600
C1396       C  0.51317748  0.32213647  0.90145412     0.36700
N1397       N  0.55637156  0.31418780  0.90672968    -0.89800
H1398       H  0.55802716  0.39279915  0.85492408     0.17900
H1399       H  0.38735169  0.27394029  0.93647368     0.17800
N1400       N  0.39082044  0.35502546  0.88537599    -0.88900
H1401       H  0.54564008  0.27714538  0.89515161     0.35200
H1402       H  0.56443702  0.31339919  0.94120426     0.40300
H1403       H  0.40321498  0.39089412  0.89997307     0.39900
H1404       H  0.35649004  0.32459882  0.90235034     0.34800
C1405       C  0.15839623  0.30247267  0.85327503    -0.26900
C1406       C  0.12383457  0.25183709  0.09940245    -0.15000
C1407       C  0.09175328  0.26353357  0.07135185     0.35700
C1408       C  0.11340919  0.31418798  0.04724103    -0.26300
C1409       C  0.16698849  0.35258620  0.04948897    -0.15600
C1410       C  0.18073069  0.35251625  0.82798163     0.36700
N1411       N  0.23337030  0.39457183  0.83590019    -0.89800
H1412       H  0.18139486  0.29523753  0.87833247     0.17900
H1413       H  0.08926074  0.32111227  0.02332990     0.17800
N1414       N  0.03820683  0.22321675  0.06484723    -0.88900
H1415       H  0.24790033  0.38361130  0.86455664     0.35200
H1416       H  0.23217058  0.42834789  0.84264887     0.40300
H1417       H  0.03352417  0.21750555  0.03029655     0.39900
H1418       H  0.01469642  0.23783061  0.07415671     0.34800
C1419       C  0.40573324  0.48842364  0.70887939    -0.26900
C1420       C  0.40616278  0.44337511  0.73097002    -0.15000
C1421       C  0.35831910  0.39287354  0.72971920     0.35700
C1422       C  0.31206418  0.39046773  0.71479482    -0.26300
C1423       C  0.31055592  0.43665376  0.69990623    -0.15600
C1424       C  0.35890530  0.48590832  0.69480205     0.36700
N1425       N  0.36121407  0.53459959  0.67836066    -0.89800
H1426       H  0.44132912  0.52740477  0.70651189     0.17900
H1427       H  0.27570106  0.35172055  0.71773863     0.17800
N1428       N  0.35522724  0.34316391  0.74334136    -0.88900
H1429       H  0.33766720  0.54061759  0.69977510     0.35200
H1430       H  0.34545625  0.52951708  0.64607776     0.40300
H1431       H  0.34108749  0.31870129  0.71659871     0.39900
H1432       H  0.32735096  0.32359941  0.76994844     0.34800
C1433       C  0.06474277  0.39827121  0.87183076    -0.26900
C1434       C  0.07741458  0.44967325  0.85284044    -0.15000
C1435       C  0.12903417  0.49368529  0.86028479     0.35700
C1436       C  0.16584488  0.48489134  0.88364581    -0.26300
C1437       C  0.15206902  0.43394752  0.90342617    -0.15600
C1438       C  0.10068952  0.39041555  0.89761761     0.36700
N1439       N  0.08418563  0.33795904  0.91906881    -0.89800
H1440       H  0.02586132  0.36379729  0.86882240     0.17900
H1441       H  0.20654742  0.52308717  0.62455201     0.17800
N1442       N  0.15191907  0.55868898  0.58129292    -0.88900
H1443       H  0.07054099  0.31095630  0.89415707     0.35200
H1444       H  0.05261697  0.32657177  0.94132618     0.40300
H1445       H  0.17736861  0.56412589  0.82347718     0.39900
H1446       H  0.16847199  0.58234720  0.60836887     0.34800
C1447       C  0.76721091  0.05665793  0.82294258    -0.26900
C1448       C  0.78385756  0.11135034  0.82188355    -0.15000
C1449       C  0.82328955  0.14303138  0.85224005     0.35700
C1450       C  0.85104954  0.12244744  0.87599390    -0.26300
C1451       C  0.83929407  0.06993148  0.87194131    -0.15600
C1452       C  0.79381318  0.03550948  0.84827890     0.36700
N1453       N  0.77532067  0.97943768  0.84838912    -0.89800
H1454       H  0.73520807  0.03061993  0.80218164     0.17900
H1455       H  0.88385508  0.14889133  0.89586894     0.17800
N1456       N  0.85564384  0.20281596  0.09998127    -0.88900
H1457       H  0.77336844  0.97054564  0.81472351     0.35200
H1458       H  0.73714710  0.95777413  0.86226921     0.40300
H1459       H  0.89555172  0.22742383  0.09119285     0.39900
H1460       H  0.85079914  0.20547644  0.13434556     0.34800
C1461       C  0.86247160  0.30258396  0.71473660    -0.26900
C1462       C  0.81635571  0.27703037  0.74225018    -0.15000
C1463       C  0.81510565  0.30301761  0.77986735     0.35700
C1464       C  0.85999933  0.35110233  0.79103728    -0.26300
C1465       C  0.90653900  0.37574178  0.76461239    -0.15600
C1466       C  0.90747431  0.35116792  0.72590391     0.36700
N1467       N  0.95531420  0.37326110  0.69985606    -0.89800
H1468       H  0.86546153  0.28207526  0.68720828     0.17900
H1469       H  0.85986656  0.36643317  0.82293857     0.17800
N1470       N  0.76944702  0.27773335  0.80938883    -0.88900
H1471       H  0.94823013  0.38105953  0.66621422     0.35200
H1472       H  0.96557030  0.34404802  0.70074292     0.40300
H1473       H  0.75675476  0.30476360  0.81129678     0.39900
H1474       H  0.78018239  0.27051525  0.84181408     0.34800
C1475       C  0.66265020  0.12517404  0.90551015    -0.26900
C1476       C  0.69135608  0.10596722  0.92993786    -0.15000
C1477       C  0.67994249  0.05367193  0.92237231     0.35700
C1478       C  0.64263305  0.02349689  0.89036505    -0.26300
C1479       C  0.61263733  0.04178903  0.86699860    -0.15600
C1480       C  0.62332266  0.09360848  0.87507602     0.36700
N1481       N  0.59564396  0.11551881  0.85140991    -0.89800
H1482       H  0.63806747  0.13933333  0.68045087     0.17900
H1483       H  0.63647256  0.98461732  0.88451926     0.17800
N1484       N  0.70637701  0.03067300  0.94682533    -0.88900
H1485       H  0.58334490  0.12456108  0.60771352     0.35200
H1486       H  0.57660532  0.12422053  0.87546780     0.40300
H1487       H  0.72541436  0.02127951  0.92341850     0.39900
H1488       H  0.67808910  0.99474714  0.96478444     0.34800
loop_ 
_geom_bond_atom_site_label_1 
_geom_bond_atom_site_label_2 
_geom_bond_distance 
_geom_bond_site_symmetry_2 
_ccdc_geom_bond_type 
C1            N2   1.372       .  A
C1            N6   1.383       .  A
C1          C360   1.530       .  S
N2          C375   1.365       .  A
C3            N4   1.350       .  A
C3         N1118   1.364   1_554  A
C3          C332   1.501       .  S
N4            C5   1.351   1_554  A
C5         N1122   1.374       .  A
C5          C346   1.493       .  S
N6          C377   1.378       .  A
C7            N8   1.359       .  A
C7          N384   1.378       .  A
C7          C321   1.490       .  S
N8          C381   1.354       .  A
C9           N10   1.343       .  A
C9         N1124   1.353   1_554  A
C9         C1409   1.477       .  S
N10          C11   1.346   1_554  A
C11          N12   1.374       .  A
C11         C307   1.493       .  S
N12        C1123   1.380       .  A
C13          N14   1.362   1_556  A
C13        N1134   1.376       .  A
C13         C262   1.506       .  S
N14        C1131   1.358       .  A
C15          N16   1.360       .  A
C15         N386   1.356       .  A
C15         C620   1.494       .  S
N16          C17   1.365       .  A
C17          N18   1.379       .  A
C17         C279   1.509       .  S
N18         C385   1.376       .  A
C19          N20   1.354       .  A
C19          N24   1.382       .  A
C19         C234   1.494       .  S
N20          C21   1.346       .  A
C21         N394   1.348       .  A
C21         C209   1.462       .  S
N22          C23   1.351   1_554  A
N22        C1137   1.349       .  A
C23        N1140   1.380       .  A
C23         C223   1.510       .  S
N24         C395   1.379       .  A
C25          N30   1.363       .  A
C25         N398   1.382       .  A
C25         C192   1.521       .  S
N26          C27   1.385       .  A
N26        C1141   1.386       .  A
C27          N28   1.351   1_556  A
C27         C181   1.503       .  S
N28          C29   1.348       .  A
C29        N1146   1.353   1_554  A
C29         C167   1.492       .  S
N30         C401   1.357       .  A
C31          N36   1.347       .  A
C31        N1148   1.386       .  A
C31         C136   1.503       .  S
N32          C33   1.394       .  A
N32         C403   1.388       .  A
C33          N34   1.361       .  A
C33         C150   1.523       .  S
N34          C35   1.347       .  A
C35         N408   1.341       .  A
C35         C125   1.460       .  S
N36        C1151   1.346       .  A
O37         Mg39   2.112   1_455  S
O37        Mg417   2.114       .  S
O37          C72   1.234       .  S
C38          O51   1.235       .  S
C38          O75   1.272       .  A
C38          H77   1.078       .  S
Mg39        O440   2.141   1_545  S
Mg39         O79   2.215   1_545  S
Mg39         O50   2.273   1_545  S
Mg39        O455   2.280       .  S
O40         Mg65   2.147       .  S
O40        Mg454   2.152   1_545  S
O40          C61   1.231       .  S
O41          C72   1.267       .  A
O41         Mg65   2.291       .  S
C42         C164   1.482       .  S
C42          O44   1.268       .  A
C42          O56   1.272       .  A
O43          C71   1.274       .  A
O43         Mg45   2.312   1_665  S
O44         Mg76   2.237       .  S
Mg45         O51   2.171       .  S
Mg45       O1153   2.098   1_455  S
Mg45         O59   2.319   1_455  S
Mg45       O1163   2.279       .  S
C46         C206   1.452       .  S
C46          O84   1.266       .  A
C46          O52   1.272       .  A
O47          C54   1.270       .  A
O47        Mg417   2.268       .  S
H48          C61   1.081       .  S
C49          O63   1.239       .  S
C49          O64   1.278   1_455  A
C49          H74   1.082       .  S
O50          C73   1.267       .  A
O51       Mg1181   2.170       .  S
O52        Mg454   2.310       .  S
C53         C251   1.498       .  S
C53          O66   1.269       .  A
C53          O58   1.276       .  A
C54         C290   1.475       .  S
C54          O81   1.274       .  A
Mg55         O62   2.122   1_455  S
Mg55        O435   2.164       .  S
Mg55         O57   2.294       .  S
Mg55         O84   2.203       .  S
Mg55        O428   2.301       .  S
O56       Mg1171   2.307   1_655  S
O57          C61   1.265   1_565  A
O58       Mg1181   2.293       .  S
O59          C78   1.276       .  A
O60          C80   1.272       .  A
O60        Mg448   2.294       .  S
O62        Mg448   2.140       .  S
O62          C73   1.234       .  S
O63         Mg82   2.183       .  S
O63       Mg1171   2.163       .  S
O64         Mg76   2.332       .  S
Mg65        O423   2.180       .  S
Mg65         O81   2.252       .  S
Mg65        O430   2.277       .  S
O66         Mg82   2.267   1_545  S
H67          C72   1.081       .  S
O68         Mg76   2.142       .  S
O68       Mg1155   2.118       .  S
O68          C71   1.236       .  S
H69          C71   1.081       .  S
H70          C73   1.074   1_455  S
O75         Mg82   2.307   1_545  S
Mg76       O1178   2.110       .  S
Mg76       O1176   2.326       .  S
C78         C335   1.499       .  S
C78          O83   1.267       .  A
O79          C80   1.264       .  A
C80         C122   1.474       .  S
Mg82       O1156   2.157   1_565  S
Mg82       O1168   2.294       .  S
O83       Mg1155   2.278   1_545  S
C85          C86   1.518       .  S
C85          C91   1.549   1_455  S
C85          C89   1.547       .  S
C85         C318   1.556       .  S
C86          H93   1.085       .  S
C86          C87   1.355       .  D
C87          C88   1.572   1_455  S
C87         C220   1.511   1_554  S
C88          C92   1.558       .  S
C88          C90   1.557       .  S
C88          H94   1.106       .  S
C89          H95   1.085       .  S
C89          C90   1.371   1_455  D
C90         C195   1.513       .  S
C91          H96   1.083       .  S
C91          C92   1.377       .  D
C92         C349   1.509       .  S
C97          C98   1.521       .  S
C97         C103   1.554       .  S
C97         C101   1.561   1_554  S
C97         C139   1.571   1_554  S
C98         H105   1.085       .  S
C98          C99   1.356       .  D
C99         C100   1.563   1_565  S
C99         C237   1.513       .  S
C100        C104   1.561       .  S
C100        C102   1.553       .  S
C100        H106   1.109       .  S
C101        H107   1.083       .  S
C101        C102   1.382   1_566  D
C102        C265   1.506       .  S
C103        H108   1.085       .  S
C103        C104   1.379   1_565  D
C104        C363   1.538       .  S
C109        C110   1.531       .  S
C109        C115   1.552       .  S
C109        C113   1.548   1_554  S
C109        C304   1.567   1_554  S
C110        H117   1.085       .  S
C110        C111   1.361       .  D
C111        C112   1.577       .  S
C111        C153   1.524       .  S
C112        C116   1.552       .  S
C112        C114   1.557       .  S
C112        H118   1.110       .  S
C113        H119   1.086       .  S
C113        C114   1.377   1_556  D
C114        C178   1.514   1_554  S
C115        H120   1.075       .  S
C115        C116   1.368       .  D
C116        C276   1.517       .  S
C121        H128   1.084       .  S
C121        C126   1.403   1_554  A
C121       C1238   1.404       .  A
C122        C123   1.419       .  A
C122        C493   1.409       .  A
C123        C124   1.386       .  A
C123        N130   1.433       .  S
C124        H129   1.083       .  S
C124        C125   1.397       .  A
C125        C498   1.402       .  A
C126       C1241   1.411       .  A
C126        N127   1.432       .  S
N127        H131   1.045       .  S
N127        H132   1.046       .  S
N130        H133   1.042       .  S
N130        H134   1.043       .  S
C135        H142   1.085   1_556  S
C135        C136   1.403       .  A
C135        C140   1.408   1_556  A
C136        C137   1.418       .  A
C137        C138   1.422       .  A
C137       N1260   1.432       .  S
C138        H143   1.078       .  S
C138        C139   1.417       .  A
C139        C140   1.435   1_556  A
C140        N141   1.436       .  S
N141        H145   1.043       .  S
N141        H146   1.041       .  S
N144        C509   1.436       .  S
N144        H147   1.044       .  S
N144        H148   1.045       .  S
C149        H156   1.083       .  S
C149        C150   1.422       .  A
C149        C154   1.416       .  A
C150        C151   1.413       .  A
C151        C152   1.416       .  A
C151        N158   1.430       .  S
C152        H157   1.083       .  S
C152        C153   1.421       .  A
C153        C154   1.406       .  A
C154        N155   1.432       .  S
N155        H159   1.045       .  S
N155        H160   1.045       .  S
N158        H161   1.045       .  S
N158        H162   1.046       .  S
C163        H170   1.084       .  S
C163        C164   1.402       .  A
C163        C168   1.400       .  A
C164       C1281   1.412       .  A
C165        C166   1.404       .  A
C165        C536   1.413       .  A
C165        N172   1.433   1_655  S
C166        H171   1.082       .  S
C166        C539   1.404       .  A
C167        C168   1.416       .  A
C167       C1282   1.408       .  A
C168        N169   1.433       .  S
N169        H173   1.045       .  S
N169        H174   1.046       .  S
N172        H175   1.046       .  S
N172        H176   1.046       .  S
C177        H184   1.084       .  S
C177        C178   1.408   1_554  A
C177        C182   1.415   1_554  A
C178        C179   1.414       .  A
C179        C180   1.415       .  A
C179        N186   1.431       .  S
C180        H185   1.084       .  S
C180        C181   1.412       .  A
C181        C182   1.419       .  A
C182        N183   1.432   1_556  S
N183        H187   1.046       .  S
N183        H188   1.045   1_554  S
N186        H189   1.044       .  S
N186        H190   1.044       .  S
C191        H198   1.083       .  S
C191        C192   1.416       .  A
C191        C196   1.414       .  A
C192        C193   1.420       .  A
C193        C194   1.419       .  A
C193        N572   1.431       .  S
C194        H199   1.080       .  S
C194        C195   1.411       .  A
C195        C196   1.406       .  A
C196        N197   1.432   1_655  S
N197        H201   1.045       .  S
N197        H202   1.044       .  S
N200       C1309   1.428       .  S
N200        H203   1.043       .  S
N200        H204   1.045       .  S
C205        H212   1.085       .  S
C205        C206   1.398       .  A
C205        C210   1.391       .  A
C206        C207   1.405       .  A
C207        C208   1.399       .  A
C207        N214   1.433       .  S
C208        H585   1.084       .  S
C208        C209   1.403       .  A
C209        C210   1.413       .  A
C210        N211   1.433       .  S
N211        H215   1.046       .  S
N211        H216   1.043       .  S
H213       C1324   1.084       .  S
N214        H217   1.046       .  S
N214        H218   1.045   1_565  S
C219        H226   1.082   1_556  S
C219        C220   1.396       .  A
C219        C224   1.406       .  A
C220        C221   1.425       .  A
C221        C222   1.419       .  A
C221        N228   1.437       .  S
C222        H227   1.083       .  S
C222        C223   1.403       .  A
C223        C224   1.431       .  A
C224        N225   1.434       .  S
N225        H229   1.046       .  S
N225        H230   1.042   1_556  S
N228        H231   1.045       .  S
N228        H232   1.044       .  S
C233        H612   1.084       .  S
C233        C234   1.397       .  A
C233        C238   1.410       .  A
C234        C235   1.419       .  A
C235        C236   1.411       .  A
C235        N242   1.433       .  S
C236        H241   1.082       .  S
C236        C237   1.402       .  A
C237        C238   1.426       .  A
C238        N239   1.431       .  S
N239        H244   1.041       .  S
N239        H615   1.046       .  S
H240       C1349   1.084       .  S
N242        H245   1.045       .  S
N242        H246   1.045       .  S
H243       N1355   1.045       .  S
C247        H254   1.083       .  S
C247        C248   1.410       .  A
C247        C252   1.411       .  A
C248       C1131   1.506       .  S
C248       C1365   1.417       .  A
C249        C250   1.404       .  A
C249        C620   1.414       .  A
C249        N256   1.433       .  S
C250        H255   1.084       .  S
C250        C623   1.404       .  A
C251        C252   1.413       .  A
C251       C1366   1.407       .  A
C252        N253   1.432       .  S
N253        H257   1.046       .  S
N253        H258   1.046       .  S
N256        H259   1.045       .  S
N256        H260   1.043       .  S
C261       H1384   1.084       .  S
C261        C262   1.409       .  A
C261        C266   1.412       .  A
C262        C263   1.418       .  A
C263        C264   1.417       .  A
C263        N270   1.431       .  S
C264        H269   1.083       .  S
C264        C265   1.409   1_556  A
C265        C266   1.408   1_554  A
C266        N267   1.432   1_545  S
N267        H272   1.045       .  S
N267       H1387   1.045   1_556  S
H268        C633   1.084       .  S
N270        H273   1.045   1_556  S
N270        H274   1.045       .  S
H271        N639   1.045       .  S
C275        H282   1.075       .  S
C275        C276   1.400       .  A
C275        C280   1.413       .  A
C276        C277   1.415       .  A
C277        C278   1.417       .  A
C277        N284   1.428       .  S
C278        H283   1.083       .  S
C278        C279   1.405       .  A
C279        C280   1.423       .  A
C280        N281   1.431       .  S
N281        H285   1.046       .  S
N281        H286   1.044       .  S
N284        H287   1.043       .  S
N284        H288   1.045       .  S
C289        H296   1.084       .  S
C289        C294   1.399       .  A
C289       C1406   1.400       .  A
C290        C291   1.413       .  A
C290        C661   1.400       .  A
C291        C292   1.401       .  A
C291        N298   1.433       .  S
C292        H297   1.083       .  S
C292        C293   1.403       .  A
C293        C381   1.477       .  S
C293        C666   1.414       .  A
C294       C1409   1.418       .  A
C294        N295   1.439       .  S
N295        H299   1.044       .  S
N295        H300   1.044       .  S
N298        H301   1.045       .  S
N298        H302   1.046       .  S
C303        H310   1.083       .  S
C303        C304   1.423       .  A
C303        C308   1.414       .  A
C304        C305   1.424       .  A
C305        C306   1.407       .  A
C305        N312   1.431   1_556  S
C306        H311   1.085       .  S
C306        C307   1.406       .  A
C307        C308   1.408       .  A
C308        N309   1.431       .  S
N309        H313   1.045       .  S
N309        H314   1.045       .  S
N312        H315   1.040   1_554  S
N312        H316   1.047       .  S
C317        H324   1.079       .  S
C317        C318   1.409       .  A
C317        C322   1.411       .  A
C318        C319   1.431       .  A
C319        C320   1.415       .  A
C319        N698   1.438       .  S
C320        H697   1.084       .  S
C320        C321   1.398       .  A
C321        C322   1.409       .  A
C322        N323   1.431       .  S
N323        H327   1.041       .  S
N323        H328   1.045       .  S
H325       C1436   1.084       .  S
N326       C1435   1.434       .  S
N326        H330   1.042       .  S
N326       H1445   1.046       .  S
H329        N698   1.044       .  S
C331        H338   1.083       .  S
C331        C332   1.404       .  A
C331        C336   1.411       .  A
C332        C333   1.420       .  A
C333        C334   1.405       .  A
C333       N1456   1.433       .  S
C334        H339   1.084       .  S
C334        C335   1.402       .  A
C335        C336   1.422       .  A
C336        N337   1.437   1_545  S
N337        H341   1.046       .  S
N337        H342   1.045       .  S
N340        C705   1.433       .  S
N340        H343   1.046       .  S
N340        H344   1.046       .  S
C345        H352   1.084       .  S
C345        C346   1.407       .  A
C345        C350   1.414       .  A
C346        C347   1.411   1_556  A
C347        C348   1.417       .  A
C347        N354   1.432       .  S
C348        H353   1.078       .  S
C348        C349   1.406       .  A
C349        C350   1.410   1_554  A
C350        N351   1.430       .  S
N351        H355   1.044       .  S
N351        H356   1.045       .  S
N354        H357   1.045       .  S
N354        H358   1.046       .  S
C359        H738   1.083       .  S
C359        C360   1.412       .  A
C359        C364   1.428       .  A
C360        C361   1.420       .  A
C361        C362   1.418       .  A
C361        N368   1.432       .  S
C362        H367   1.081   1_545  S
C362        C363   1.410       .  A
C363        C364   1.422       .  A
C364        N365   1.429       .  S
N365        H370   1.046       .  S
N365        H741   1.045       .  S
H366       C1475   1.083       .  S
N368        H371   1.042       .  S
N368        H372   1.045       .  S
H369       N1481   1.046       .  S
C373        N374   1.370       .  A
C373        N378   1.381       .  A
C373        C732   1.528       .  S
N374        C747   1.365       .  A
C375        N376   1.349       .  A
C375        C704   1.507       .  S
N376        C377   1.351       .  A
C377        C718   1.501       .  S
N378        C749   1.376       .  A
C379        N380   1.355       .  A
C379        N756   1.382       .  A
C379        C693   1.513       .  S
N380        C753   1.347       .  A
C381        N382   1.345       .  A
N382        C383   1.344       .  A
C383        N384   1.373       .  A
C383        C679   1.489       .  S
C385        N386   1.355       .  A
C385        C634   1.506       .  S
C387        N758   1.358       .  A
C387        N388   1.363       .  A
C387        C992   1.505       .  S
N388        C389   1.367       .  A
C389        N390   1.377       .  A
C389        C651   1.515       .  S
N390        C757   1.374       .  A
C391        N392   1.349       .  A
C391        N396   1.379       .  A
C391        C606   1.480       .  S
N392        C393   1.342       .  A
C393        N766   1.350       .  A
C393        C581   1.455       .  S
N394        C395   1.351       .  A
C395        C595   1.507       .  S
N396        C767   1.378       .  A
C397        N770   1.387       .  A
C397        N402   1.367       .  A
C397        C564   1.532       .  S
N398        C399   1.379       .  A
C399        N400   1.351       .  A
C399        C553   1.501       .  S
N400        C401   1.351       .  A
C401        C539   1.486       .  S
N402        C773   1.362       .  A
C403        N408   1.345       .  A
C403        C508   1.517       .  S
N404        C775   1.385       .  A
N404        C405   1.389       .  A
C405        N406   1.356       .  A
C405        C522   1.522       .  S
N406        C407   1.346       .  A
C407        N780   1.346       .  A
C407        C497   1.462       .  S
O409       Mg411   2.089   1_445  S
O409       Mg789   2.109       .  S
O409        C444   1.231       .  S
C410        O423   1.238       .  S
C410        O447   1.275       .  A
C410        H449   1.075       .  S
Mg411       O812   2.133       .  S
Mg411       O827   2.257   1_565  S
Mg411       O451   2.169       .  S
Mg411       O422   2.282       .  S
O412       Mg826   2.150   1_545  S
O412       Mg437   2.161       .  S
O412        C433   1.233       .  S
O413        C444   1.264       .  A
O413       Mg437   2.275       .  S
C414        C536   1.481       .  S
C414        O416   1.269       .  A
C414        O428   1.272   1_655  A
O415        C443   1.272   1_545  A
O415       Mg417   2.312   1_655  S
O416       Mg448   2.238       .  S
Mg417       O423   2.192       .  S
Mg417       O431   2.334   1_455  S
C418        C578   1.446       .  S
C418        O456   1.262       .  A
C418        O424   1.265       .  A
O419        C426   1.272       .  A
O419       Mg789   2.256       .  S
H420        C433   1.081       .  S
C421        O435   1.236       .  S
C421        O436   1.272   1_455  A
C421        H446   1.081       .  S
O422        C445   1.268       .  A
O424       Mg826   2.261       .  S
C425        C623   1.490       .  S
C425        O438   1.269       .  A
C425        O430   1.274       .  A
C426        C662   1.468       .  S
C426        O453   1.274       .  A
Mg427       O434   2.097   1_455  S
Mg427       O807   2.151       .  S
Mg427       O800   2.314   1_455  S
Mg427       O429   2.317       .  S
Mg427       O456   2.193       .  S
O429        C433   1.271   1_565  A
O431        C450   1.277       .  A
O432        C452   1.273       .  A
O432       Mg820   2.310       .  S
O434       Mg820   2.124       .  S
O434        C445   1.236       .  S
O435       Mg454   2.160       .  S
O436       Mg448   2.309       .  S
Mg437       O795   2.176       .  S
Mg437       O802   2.278       .  S
Mg437       O453   2.247       .  S
O438       Mg454   2.265   1_545  S
H439        C444   1.081       .  S
O440       Mg448   2.137       .  S
O440        C443   1.236       .  S
H441        C443   1.081       .  S
H442        C445   1.078   1_455  S
O447       Mg454   2.312   1_545  S
C450        C707   1.504       .  S
C450        O455   1.267       .  A
O451        C452   1.257       .  A
C452        C494   1.475       .  S
C457        C458   1.516       .  S
C457        C463   1.533       .  S
C457        C461   1.555       .  S
C457        C690   1.556       .  S
C458        H465   1.087       .  S
C458        C459   1.358       .  D
C459        C460   1.580   1_455  S
C459        C592   1.517       .  S
C460        C464   1.565       .  S
C460        C462   1.571       .  S
C460        H466   1.110       .  S
C461        H467   1.082       .  S
C461        C462   1.376   1_455  D
C462        C567   1.526       .  S
C463        H468   1.086       .  S
C463        C464   1.372   1_455  D
C464        C721   1.518       .  S
C469        C470   1.530       .  S
C469        C475   1.565       .  S
C469        C473   1.549       .  S
C469        C511   1.575       .  S
C470        H477   1.077       .  S
C470        C471   1.359       .  D
C471        C472   1.554       .  S
C471        C609   1.498       .  S
C472        C476   1.557       .  S
C472        C474   1.549       .  S
C472        H478   1.108   1_565  S
C473        H479   1.086       .  S
C473        C474   1.372       .  D
C474        C637   1.508   1_565  S
C475        H480   1.085       .  S
C475        C476   1.388       .  D
C476        C735   1.535   1_565  S
C481        C482   1.533       .  S
C481        C487   1.551       .  S
C481        C485   1.538       .  S
C481        C676   1.563       .  S
C482        H489   1.084       .  S
C482        C483   1.360       .  D
C483        C484   1.570       .  S
C483        C525   1.517       .  S
C484        C488   1.562       .  S
C484        C486   1.561       .  S
C484        H490   1.109       .  S
C485        H491   1.082       .  S
C485        C486   1.373       .  D
C486        C550   1.514       .  S
C487        H492   1.077       .  S
C487        C488   1.377       .  D
C488        C648   1.532       .  S
C493        H500   1.084       .  S
C493        C498   1.403       .  A
C494        C865   1.405       .  A
C494        C495   1.425       .  A
C495        C496   1.385       .  A
C495        N502   1.434       .  S
C496        H501   1.085       .  S
C496        C497   1.395       .  A
C497        C870   1.408       .  A
C498        N499   1.431       .  S
N499        H503   1.045       .  S
N499        H504   1.045       .  S
N502        H505   1.044       .  S
N502        H506   1.045       .  S
C507        H514   1.083       .  S
C507        C508   1.401       .  A
C507        C512   1.422       .  A
C508        C509   1.430       .  A
C509        C510   1.411       .  A
C510        H515   1.082       .  S
C510        C511   1.403       .  A
C511        C512   1.443       .  A
C512        N513   1.436       .  S
N513        H517   1.043       .  S
N513        H518   1.046       .  S
N516        C881   1.432       .  S
N516        H519   1.045       .  S
N516        H520   1.046       .  S
C521        H528   1.083       .  S
C521        C522   1.423       .  A
C521        C526   1.413       .  A
C522        C523   1.414       .  A
C523        C524   1.414       .  A
C523        N530   1.431       .  S
C524        H529   1.083       .  S
C524        C525   1.418       .  A
C525        C526   1.404       .  A
C526        N527   1.432       .  S
N527        H531   1.045       .  S
N527        H532   1.043       .  S
N530        H533   1.045       .  S
N530        H534   1.045       .  S
C535        H542   1.084       .  S
C535        C536   1.402       .  A
C535        C540   1.401       .  A
C537        C908   1.411       .  A
C537        C538   1.407       .  A
C537        N544   1.432   1_655  S
C538        H543   1.082       .  S
C538        C911   1.406       .  A
C539        C540   1.414       .  A
C540        N541   1.433       .  S
N541        H545   1.046       .  S
N541        H546   1.045       .  S
N544        H547   1.046       .  S
N544        H548   1.045       .  S
C549        H556   1.080       .  S
C549        C550   1.408       .  A
C549        C554   1.413       .  A
C550        C551   1.416       .  A
C551        C552   1.421       .  A
C551        N558   1.438       .  S
C552        H557   1.084       .  S
C552        C553   1.411       .  A
C553        C554   1.414       .  A
C554        N555   1.432       .  S
N555        H559   1.046       .  S
N555        H560   1.046       .  S
N558        H561   1.045       .  S
N558        H562   1.044       .  S
C563        H570   1.083       .  S
C563        C564   1.410       .  A
C563        C568   1.427       .  A
C564        C565   1.431       .  A
C565        C566   1.416       .  A
C565        N944   1.431       .  S
C566        H571   1.084       .  S
C566        C567   1.404       .  A
C567        C568   1.419       .  A
C568        N569   1.430       .  S
N569        H573   1.045       .  S
N569        H574   1.045       .  S
N572        H575   1.045       .  S
N572        H576   1.045       .  S
C577        H584   1.085       .  S
C577        C578   1.399       .  A
C577        C582   1.390       .  A
C578        C579   1.409       .  A
C579        C580   1.386       .  A
C579        N586   1.434       .  S
C580        H957   1.084       .  S
C580        C581   1.400       .  A
C581        C582   1.414       .  A
C582        N583   1.432       .  S
N583        H587   1.045       .  S
N583        H588   1.044       .  S
N586        H589   1.044       .  S
N586        H590   1.044       .  S
C591        H598   1.084       .  S
C591        C592   1.420       .  A
C591        C596   1.410       .  A
C592        C593   1.403       .  A
C593        C594   1.416       .  A
C593        N600   1.430       .  S
C594        H599   1.084       .  S
C594        C595   1.419       .  A
C595        C596   1.410       .  A
C596        N597   1.432       .  S
N597        H601   1.046       .  S
N597        H602   1.045       .  S
N600        H603   1.046       .  S
N600        H604   1.044       .  S
C605        H984   1.084       .  S
C605        C606   1.399       .  A
C605        C610   1.408       .  A
C606        C607   1.415       .  A
C607        C608   1.404       .  A
C607        N614   1.431       .  S
C608        H613   1.082       .  S
C608        C609   1.399       .  A
C609        C610   1.419       .  A
C610        N611   1.431       .  S
N611        H987   1.045       .  S
N611        H616   1.046       .  S
N614        H617   1.045       .  S
N614        H618   1.045       .  S
C619        H626   1.084       .  S
C619        C620   1.407       .  A
C619        C624   1.412       .  A
C621        C992   1.418       .  A
C621        C622   1.407       .  A
C621        N628   1.433       .  S
C622        H627   1.084       .  S
C622        C995   1.405       .  A
C623        C624   1.414       .  A
C624        N625   1.432       .  S
N625        H629   1.045       .  S
N625        H630   1.046       .  S
N628        H631   1.046       .  S
N628        H632   1.046       .  S
C633        C634   1.412       .  A
C633        C638   1.416       .  A
C634        C635   1.417       .  A
C635        C636   1.414       .  A
C635        N642   1.431       .  S
C636        H641   1.083       .  S
C636        C637   1.408       .  A
C637        C638   1.410       .  A
C638        N639   1.432   1_545  S
N639        H644   1.045       .  S
H640       C1005   1.084       .  S
N642        H645   1.046       .  S
N642        H646   1.045       .  S
H643       N1011   1.046       .  S
C647        H654   1.080       .  S
C647        C648   1.413       .  A
C647        C652   1.418       .  A
C648        C649   1.426       .  A
C649        C650   1.417       .  A
C649        N656   1.438       .  S
C650        H655   1.084       .  S
C650        C651   1.407       .  A
C651        C652   1.418       .  A
C652        N653   1.431       .  S
N653        H657   1.045       .  S
N653        H658   1.046       .  S
N656        H659   1.045       .  S
N656        H660   1.045       .  S
C661        H668   1.084       .  S
C661        C666   1.393       .  A
C662       C1033   1.403       .  A
C662        C663   1.413       .  A
C663        C664   1.394       .  A
C663        N670   1.435       .  S
C664        H669   1.083       .  S
C664        C665   1.401       .  A
C665        C753   1.470       .  S
C665       C1038   1.411       .  A
C666        N667   1.433       .  S
N667        H671   1.046       .  S
N667        H672   1.042       .  S
N670        H673   1.046       .  S
N670        H674   1.044       .  S
C675        H682   1.082       .  S
C675        C676   1.418       .  A
C675        C680   1.409       .  A
C676        C677   1.418       .  A
C677        C678   1.413       .  A
C677        N684   1.432       .  S
C678        H683   1.084       .  S
C678        C679   1.410       .  A
C679        C680   1.408       .  A
C680        N681   1.432       .  S
N681        H685   1.045       .  S
N681        H686   1.046       .  S
N684        H687   1.046       .  S
N684        H688   1.046       .  S
C689        H696   1.074       .  S
C689        C690   1.399       .  A
C689        C694   1.404       .  A
C690        C691   1.427       .  A
C691        C692   1.417       .  A
C691       N1070   1.432       .  S
C692       H1069   1.083       .  S
C692        C693   1.403       .  A
C693        C694   1.425       .  A
C694        N695   1.432       .  S
N695        H699   1.046       .  S
N695        H700   1.041       .  S
N698        H702   1.043       .  S
H701       N1070   1.043       .  S
C703        H710   1.083       .  S
C703        C704   1.405       .  A
C703        C708   1.414       .  A
C704        C705   1.423       .  A
C705        C706   1.407       .  A
C706        H711   1.084       .  S
C706        C707   1.403       .  A
C707        C708   1.423       .  A
C708        N709   1.438       .  S
N709        H713   1.046   1_545  S
N709        H714   1.046   1_545  S
N712       C1077   1.433       .  S
N712        H715   1.046       .  S
N712        H716   1.046       .  S
C717        H724   1.084       .  S
C717        C718   1.407       .  A
C717        C722   1.415       .  A
C718        C719   1.413       .  A
C719        C720   1.422       .  A
C719        N726   1.431       .  S
C720        H725   1.082       .  S
C720        C721   1.409       .  A
C721        C722   1.418       .  A
C722        N723   1.437   1_655  S
N723        H727   1.044       .  S
N723        H728   1.044       .  S
N726        H729   1.045       .  S
N726        H730   1.045       .  S
C731       H1110   1.083       .  S
C731        C732   1.410       .  A
C731        C736   1.424       .  A
C732        C733   1.423       .  A
C733        C734   1.418       .  A
C733        N740   1.432       .  S
C734        H739   1.083   1_545  S
C734        C735   1.409       .  A
C735        C736   1.422       .  A
C736        N737   1.430       .  S
N737       H1113   1.046       .  S
N737        H742   1.046       .  S
N740        H743   1.046       .  S
N740        H744   1.046   1_545  S
C745        N746   1.372       .  A
C745        N750   1.379       .  A
C745       C1104   1.514       .  S
N746       C1119   1.366       .  A
C747        N748   1.347       .  A
C747       C1076   1.501       .  S
N748        C749   1.348       .  A
C749       C1090   1.495       .  S
N750       C1121   1.374       .  A
C751        N752   1.358       .  A
C751       N1128   1.387       .  A
C751       C1065   1.506       .  S
N752       C1125   1.349       .  A
C753        N754   1.343       .  A
N754        C755   1.348       .  A
C755        N756   1.380       .  A
C755       C1051   1.489       .  S
C757        N758   1.357       .  A
C757       C1006   1.503       .  S
C759       N1130   1.356       .  A
C759        N760   1.359       .  A
C759       C1364   1.502       .  S
N760        C761   1.363       .  A
C761        N762   1.378       .  A
C761       C1023   1.511       .  S
N762       C1129   1.377       .  A
C763        N764   1.358       .  A
C763        N768   1.385       .  A
C763        C978   1.504       .  S
N764        C765   1.349       .  A
C765       N1138   1.350       .  A
C765        C953   1.475       .  S
N766        C767   1.350       .  A
C767        C967   1.510       .  S
N768       C1139   1.383       .  A
C769       N1142   1.385       .  A
C769        N774   1.365       .  A
C769        C936   1.539       .  S
N770        C771   1.384       .  A
C771        N772   1.349       .  A
C771        C925   1.510       .  S
N772        C773   1.350       .  A
C773        C911   1.496       .  S
N774       C1145   1.358       .  A
C775        N780   1.346       .  A
C775        C880   1.504       .  S
N776       C1147   1.387       .  A
N776        C777   1.393       .  A
C777        N778   1.358       .  A
C777        C894   1.505       .  S
N778        C779   1.346       .  A
C779       N1152   1.341       .  A
C779        C869   1.458       .  S
O781       Mg783   2.113   1_545  S
O781      Mg1161   2.114       .  S
O781        C816   1.232   1_655  S
C782        O795   1.232       .  S
C782        O819   1.269       .  A
C782        H821   1.075       .  S
Mg783      O1184   2.129       .  S
Mg783      O1199   2.289   1_565  S
Mg783       O823   2.210       .  S
Mg783       O794   2.308       .  S
O784      Mg1198   2.132   1_545  S
O784       Mg809   2.153       .  S
O784        C805   1.228       .  S
O785        C816   1.266       .  A
O785       Mg809   2.288       .  S
C786        C908   1.482       .  S
C786        O788   1.269       .  A
C786        O800   1.274       .  A
O787        C815   1.271       .  A
O787       Mg789   2.301   1_665  S
O788       Mg820   2.240       .  S
Mg789       O795   2.151       .  S
Mg789       O803   2.321   1_455  S
C790        C950   1.458       .  S
C790        O828   1.267       .  A
C790        O796   1.273       .  A
O791        C798   1.273       .  A
O791      Mg1161   2.289   1_455  S
H792        C805   1.080       .  S
C793        O807   1.237       .  S
C793        O808   1.275   1_455  A
C793        H818   1.081       .  S
O794        C817   1.272       .  A
O796      Mg1198   2.313       .  S
C797        C995   1.496       .  S
C797        O810   1.268       .  A
C797        O802   1.272       .  A
C798       C1034   1.470       .  S
C798        O825   1.275       .  A
Mg799       O806   2.127   1_455  S
Mg799      O1179   2.164       .  S
Mg799      O1172   2.318   1_455  S
Mg799       O801   2.296       .  S
Mg799       O828   2.216       .  S
O801        C805   1.267   1_565  A
O803        C822   1.278       .  A
O804        C824   1.267       .  A
O804      Mg1192   2.289       .  S
O806      Mg1192   2.135       .  S
O806        C817   1.237       .  S
O807       Mg826   2.180       .  S
O808       Mg820   2.327       .  S
Mg809      O1167   2.161       .  S
Mg809      O1174   2.320       .  S
Mg809       O825   2.261       .  S
O810       Mg826   2.273   1_545  S
H811        C816   1.081   1_655  S
O812       Mg820   2.123       .  S
O812        C815   1.235       .  S
H813        C815   1.080       .  S
H814        C817   1.079       .  S
O819       Mg826   2.285   1_545  S
C822       C1079   1.496       .  S
C822        O827   1.265       .  A
O823        C824   1.261       .  A
C824        C866   1.460       .  S
C829        C830   1.518       .  S
C829        C835   1.550   1_455  S
C829        C833   1.548       .  S
C829       C1062   1.573       .  S
C830        H837   1.075       .  S
C830        C831   1.356       .  D
C831        C832   1.577   1_455  S
C831        C964   1.517       .  S
C832        C836   1.568       .  S
C832        C834   1.560       .  S
C832        H838   1.109       .  S
C833        H839   1.084       .  S
C833        C834   1.382   1_455  D
C834        C939   1.535       .  S
C835        H840   1.085       .  S
C835        C836   1.375       .  D
C836       C1093   1.513       .  S
C841        C842   1.527       .  S
C841        C847   1.551       .  S
C841        C845   1.559       .  S
C841        C883   1.572       .  S
C842        H849   1.084       .  S
C842        C843   1.358       .  D
C843        C844   1.565       .  S
C843        C981   1.520       .  S
C844        C848   1.562       .  S
C844        C846   1.553       .  S
C844        H850   1.102   1_565  S
C845        H851   1.083       .  S
C845        C846   1.381       .  D
C846       C1009   1.507   1_565  S
C847        H852   1.083       .  S
C847        C848   1.383       .  D
C848       C1107   1.546   1_565  S
C853        C854   1.534       .  S
C853        C859   1.545       .  S
C853        C857   1.542       .  S
C853       C1048   1.563       .  S
C854        H861   1.085       .  S
C854        C855   1.355       .  D
C855        C856   1.576       .  S
C855        C897   1.518       .  S
C856        C860   1.565       .  S
C856        C858   1.565       .  S
C856        H862   1.110       .  S
C857        H863   1.086       .  S
C857        C858   1.377       .  D
C858        C922   1.518       .  S
C859        H864   1.074       .  S
C859        C860   1.377       .  D
C860       C1020   1.533       .  S
C865        H872   1.084       .  S
C865        C870   1.400       .  A
C866       C1237   1.403       .  A
C866        C867   1.415       .  A
C867        C868   1.386       .  A
C867        N874   1.434       .  S
C868        H873   1.084       .  S
C868        C869   1.397       .  A
C869       C1242   1.402       .  A
C870        N871   1.432       .  S
N871        H875   1.045       .  S
N871        H876   1.046       .  S
N874        H877   1.041       .  S
N874        H878   1.043       .  S
C879        H886   1.084       .  S
C879        C880   1.402       .  A
C879        C884   1.408       .  A
C880        C881   1.419       .  A
C881        C882   1.423       .  A
C882        H887   1.079       .  S
C882        C883   1.418       .  A
C883        C884   1.435       .  A
C884        N885   1.436       .  S
N885        H889   1.040       .  S
N885        H890   1.044       .  S
N888       C1253   1.433       .  S
N888        H891   1.046       .  S
N888        H892   1.043       .  S
C893        H900   1.083       .  S
C893        C894   1.406       .  A
C893        C898   1.419       .  A
C894        C895   1.423       .  A
C895        C896   1.415       .  A
C895        N902   1.433       .  S
C896        H901   1.080       .  S
C896        C897   1.401       .  A
C897        C898   1.422       .  A
C898        N899   1.433       .  S
N899        H903   1.044       .  S
N899        H904   1.046       .  S
N902        H905   1.045       .  S
N902        H906   1.044       .  S
C907        H914   1.084       .  S
C907        C908   1.400       .  A
C907        C912   1.402       .  A
C909       C1280   1.413       .  A
C909        C910   1.408       .  A
C909        N916   1.432       .  S
C910        H915   1.081       .  S
C910       C1283   1.407       .  A
C911        C912   1.420       .  A
C912        N913   1.433       .  S
N913        H917   1.046       .  S
N913        H918   1.044       .  S
N916        H919   1.046   1_655  S
N916        H920   1.044   1_655  S
C921        H928   1.083       .  S
C921        C922   1.410       .  A
C921        C926   1.419       .  A
C922        C923   1.413       .  A
C923        C924   1.421       .  A
C923        N930   1.436       .  S
C924        H929   1.084       .  S
C924        C925   1.411       .  A
C925        C926   1.421       .  A
C926        N927   1.432       .  S
N927        H931   1.046       .  S
N927        H932   1.045       .  S
N930        H933   1.042       .  S
N930        H934   1.046       .  S
C935        H942   1.083       .  S
C935        C936   1.414       .  A
C935        C940   1.430       .  A
C936        C937   1.433       .  A
C937        C938   1.406       .  A
C937       N1316   1.428       .  S
C938        H943   1.084       .  S
C938        C939   1.403       .  A
C939        C940   1.424       .  A
C940        N941   1.429       .  S
N941        H945   1.044       .  S
N941        H946   1.046       .  S
N944        H947   1.042       .  S
N944        H948   1.044       .  S
C949        H956   1.085       .  S
C949        C950   1.396       .  A
C949        C954   1.395       .  A
C950        C951   1.404       .  A
C951        C952   1.398       .  A
C951        N958   1.432       .  S
C952       H1329   1.084       .  S
C952        C953   1.404       .  A
C953        C954   1.417       .  A
C954        N955   1.428       .  S
N955        H959   1.046       .  S
N955        H960   1.040       .  S
N958        H961   1.046       .  S
N958        H962   1.045       .  S
C963        H970   1.084       .  S
C963        C964   1.400       .  A
C963        C968   1.412       .  A
C964        C965   1.426       .  A
C965        C966   1.409       .  A
C965        N972   1.427       .  S
C966        H971   1.084       .  S
C966        C967   1.396       .  A
C967        C968   1.433       .  A
C968        N969   1.432       .  S
N969        H973   1.045       .  S
N969        H974   1.044       .  S
N972        H975   1.045       .  S
N972        H976   1.046       .  S
C977       H1356   1.084       .  S
C977        C978   1.401       .  A
C977        C982   1.418       .  A
C978        C979   1.419       .  A
C979        C980   1.408       .  A
C979        N986   1.429       .  S
C980        H985   1.082       .  S
C980        C981   1.400       .  A
C981        C982   1.429       .  A
C982        N983   1.431       .  S
N983       H1359   1.046       .  S
N983        H988   1.043       .  S
N986        H989   1.044       .  S
N986        H990   1.045       .  S
C991        H998   1.084       .  S
C991        C992   1.409       .  A
C991        C996   1.412       .  A
C993       C1364   1.416       .  A
C993        C994   1.407       .  A
C993       N1000   1.433       .  S
C994        H999   1.084       .  S
C994       C1367   1.407       .  A
C995        C996   1.415       .  A
C996        N997   1.432       .  S
N997       H1001   1.045       .  S
N997       H1002   1.046       .  S
N1000      H1003   1.046       .  S
N1000      H1004   1.045       .  S
C1005      C1006   1.409       .  A
C1005      C1010   1.411       .  A
C1006      C1007   1.417       .  A
C1007      C1008   1.416       .  A
C1007      N1014   1.432       .  S
C1008      H1013   1.084       .  S
C1008      C1009   1.409       .  A
C1009      C1010   1.413       .  A
C1010      N1011   1.432   1_545  S
N1011      H1016   1.043       .  S
H1012      C1377   1.084       .  S
N1014      H1017   1.045       .  S
N1014      H1018   1.046       .  S
H1015      N1383   1.045       .  S
C1019      H1026   1.081       .  S
C1019      C1020   1.415       .  A
C1019      C1024   1.420       .  A
C1020      C1021   1.425       .  A
C1021      C1022   1.413       .  A
C1021      N1028   1.437       .  S
C1022      H1027   1.084       .  S
C1022      C1023   1.405       .  A
C1023      C1024   1.416       .  A
C1024      N1025   1.431       .  S
N1025      H1029   1.045       .  S
N1025      H1030   1.046       .  S
N1028      H1031   1.045       .  S
N1028      H1032   1.044       .  S
C1033      H1040   1.084       .  S
C1033      C1038   1.396       .  A
C1034      C1405   1.401       .  A
C1034      C1035   1.410       .  A
C1035      C1036   1.400       .  A
C1035      N1042   1.433       .  S
C1036      H1041   1.083       .  S
C1036      C1037   1.404       .  A
C1037      C1125   1.475       .  S
C1037      C1410   1.412       .  A
C1038      N1039   1.433       .  S
N1039      H1043   1.046       .  S
N1039      H1044   1.042       .  S
N1042      H1045   1.046       .  S
N1042      H1046   1.046       .  S
C1047      H1054   1.080       .  S
C1047      C1048   1.418       .  A
C1047      C1052   1.408       .  A
C1048      C1049   1.419       .  A
C1049      C1050   1.415       .  A
C1049      N1056   1.436       .  S
C1050      H1055   1.084       .  S
C1050      C1051   1.411       .  A
C1051      C1052   1.405       .  A
C1052      N1053   1.432       .  S
N1053      H1057   1.045       .  S
N1053      H1058   1.046       .  S
N1056      H1059   1.044       .  S
N1056      H1060   1.045       .  S
C1061      H1068   1.081       .  S
C1061      C1062   1.407       .  A
C1061      C1066   1.412       .  A
C1062      C1063   1.442       .  A
C1063      C1064   1.418       .  A
C1063      N1442   1.434       .  S
C1064      H1441   1.084       .  S
C1064      C1065   1.397       .  A
C1065      C1066   1.417       .  A
C1066      N1067   1.432       .  S
N1067      H1071   1.043       .  S
N1067      H1072   1.045       .  S
N1070      H1074   1.045       .  S
H1073      N1442   1.047       .  S
C1075      H1082   1.083       .  S
C1075      C1076   1.404       .  A
C1075      C1080   1.411       .  A
C1076      C1077   1.424       .  A
C1077      C1078   1.403       .  A
C1078      H1083   1.084       .  S
C1078      C1079   1.400       .  A
C1079      C1080   1.423       .  A
C1080      N1081   1.438   1_545  S
N1081      H1085   1.045       .  S
N1081      H1086   1.046       .  S
N1084      C1449   1.434       .  S
N1084      H1087   1.046       .  S
N1084      H1088   1.045       .  S
C1089      H1096   1.084       .  S
C1089      C1090   1.402       .  A
C1089      C1094   1.415       .  A
C1090      C1091   1.415       .  A
C1091      C1092   1.414       .  A
C1091      N1098   1.432       .  S
C1092      H1097   1.082       .  S
C1092      C1093   1.405       .  A
C1093      C1094   1.415       .  A
C1094      N1095   1.425       .  S
N1095      H1099   1.044       .  S
N1095      H1100   1.045       .  S
N1098      H1101   1.046       .  S
N1098      H1102   1.046       .  S
C1103      H1482   1.084       .  S
C1103      C1104   1.406       .  A
C1103      C1108   1.424       .  A
C1104      C1105   1.413       .  A
C1105      C1106   1.418       .  A
C1105      N1112   1.438       .  S
C1106      H1111   1.080   1_545  S
C1106      C1107   1.416       .  A
C1107      C1108   1.429       .  A
C1108      N1109   1.429       .  S
N1109      H1485   1.046       .  S
N1109      H1114   1.046       .  S
N1112      H1115   1.045       .  S
N1112      H1116   1.045       .  S
C1117      N1118   1.369       .  A
C1117      N1122   1.379       .  A
C1117      C1476   1.521       .  S
C1119      N1120   1.347       .  A
C1119      C1448   1.501       .  S
N1120      C1121   1.347       .  A
C1121      C1462   1.492       .  S
C1123      N1124   1.359       .  A
C1123      C1437   1.495       .  S
C1125      N1126   1.347       .  A
N1126      C1127   1.349       .  A
C1127      N1128   1.383       .  A
C1127      C1423   1.510       .  S
C1129      N1130   1.359       .  A
C1129      C1378   1.505       .  S
C1131      N1132   1.359   1_554  A
N1132      C1133   1.364       .  A
C1133      N1134   1.376       .  A
C1133      C1395   1.519       .  S
C1135      N1136   1.356       .  A
C1135      N1140   1.382       .  A
C1135      C1350   1.495       .  S
N1136      C1137   1.349   1_556  A
C1137      C1325   1.469       .  S
N1138      C1139   1.352       .  A
C1139      C1339   1.525       .  S
C1141      N1146   1.361       .  A
C1141      C1308   1.536       .  S
N1142      C1143   1.383       .  A
C1143      N1144   1.353       .  A
C1143      C1297   1.504       .  S
N1144      C1145   1.351       .  A
C1145      C1283   1.499       .  S
C1147      N1152   1.345       .  A
C1147      C1252   1.524       .  S
N1148      C1149   1.389       .  A
C1149      N1150   1.357       .  A
C1149      C1266   1.525       .  S
N1150      C1151   1.345       .  A
C1151      C1241   1.468       .  S
O1153     Mg1155   2.097   1_545  S
O1153      C1188   1.231   1_655  S
C1154      O1167   1.235       .  S
C1154      O1191   1.273       .  A
C1154      H1193   1.073       .  S
Mg1155     O1195   2.198       .  S
Mg1155     O1166   2.291       .  S
O1156     Mg1181   2.154       .  S
O1156      C1177   1.231       .  S
O1157      C1188   1.265       .  A
O1157     Mg1181   2.277       .  S
C1158      C1280   1.491       .  S
C1158      O1160   1.268       .  A
C1158      O1172   1.274       .  A
O1159      C1187   1.275   1_545  A
O1159     Mg1161   2.319       .  S
O1160     Mg1192   2.242       .  S
Mg1161     O1167   2.177   1_655  S
Mg1161     O1175   2.316       .  S
C1162      C1322   1.457       .  S
C1162      O1200   1.265       .  A
C1162      O1168   1.269       .  A
O1163      C1170   1.273       .  A
H1164      C1177   1.081       .  S
C1165      O1179   1.235       .  S
C1165      O1180   1.274   1_455  A
C1165      H1190   1.081       .  S
O1166      C1189   1.270       .  A
C1169      C1367   1.497       .  S
C1169      O1182   1.272       .  A
C1169      O1174   1.277       .  A
C1170      C1406   1.471       .  S
C1170      O1197   1.275       .  A
Mg1171     O1178   2.111   1_455  S
Mg1171     O1173   2.299       .  S
Mg1171     O1200   2.209       .  S
O1173      C1177   1.266   1_565  A
O1175      C1194   1.276       .  A
O1176      C1196   1.272       .  A
O1178      C1189   1.235       .  S
O1179     Mg1198   2.176       .  S
O1180     Mg1192   2.318       .  S
Mg1181     O1197   2.256       .  S
O1182     Mg1198   2.259   1_545  S
H1183      C1188   1.081       .  S
O1184     Mg1192   2.155       .  S
O1184      C1187   1.236       .  S
H1185      C1187   1.080       .  S
H1186      C1189   1.073       .  S
O1191     Mg1198   2.309   1_545  S
C1194      C1451   1.500       .  S
C1194      O1199   1.268       .  A
O1195      C1196   1.259       .  A
C1196      C1238   1.475       .  S
C1201      C1202   1.521       .  S
C1201      C1207   1.544   1_455  S
C1201      C1205   1.554       .  S
C1201      C1434   1.561       .  S
C1202      H1209   1.082       .  S
C1202      C1203   1.354       .  D
C1203      C1204   1.570   1_455  S
C1203      C1336   1.509       .  S
C1204      C1208   1.565       .  S
C1204      C1206   1.552       .  S
C1204      H1210   1.106       .  S
C1205      H1211   1.085       .  S
C1205      C1206   1.383   1_455  D
C1206      C1311   1.535       .  S
C1207      H1212   1.084       .  S
C1207      C1208   1.373       .  D
C1208      C1465   1.503       .  S
C1213      C1214   1.531       .  S
C1213      C1219   1.563       .  S
C1213      C1217   1.546       .  S
C1213      C1255   1.570       .  S
C1214      H1221   1.081       .  S
C1214      C1215   1.362       .  D
C1215      C1216   1.564       .  S
C1215      C1353   1.512       .  S
C1216      C1220   1.557   1_565  S
C1216      C1218   1.554   1_565  S
C1216      H1222   1.110   1_565  S
C1217      H1223   1.086       .  S
C1217      C1218   1.373   1_565  D
C1218      C1381   1.506       .  S
C1219      H1224   1.084       .  S
C1219      C1220   1.379   1_565  D
C1220      C1479   1.528       .  S
C1225      C1226   1.535       .  S
C1225      C1231   1.550       .  S
C1225      C1229   1.555       .  S
C1225      C1420   1.586       .  S
C1226      H1233   1.084       .  S
C1226      C1227   1.364       .  D
C1227      C1228   1.572       .  S
C1227      C1269   1.522       .  S
C1228      C1232   1.549       .  S
C1228      C1230   1.562       .  S
C1228      H1234   1.108       .  S
C1229      H1235   1.085       .  S
C1229      C1230   1.384       .  D
C1230      C1294   1.525       .  S
C1231      H1236   1.069       .  S
C1231      C1232   1.370       .  D
C1232      C1392   1.523       .  S
C1237      H1244   1.084       .  S
C1237      C1242   1.404       .  A
C1238      C1239   1.422   1_554  A
C1239      C1240   1.387       .  A
C1239      N1246   1.433       .  S
C1240      H1245   1.085       .  S
C1240      C1241   1.397       .  A
C1242      N1243   1.428       .  S
N1243      H1247   1.043       .  S
N1243      H1248   1.044       .  S
N1246      H1249   1.044       .  S
N1246      H1250   1.039   1_556  S
C1251      H1258   1.082       .  S
C1251      C1252   1.406       .  A
C1251      C1256   1.426       .  A
C1252      C1253   1.432       .  A
C1253      C1254   1.402       .  A
C1254      H1259   1.081       .  S
C1254      C1255   1.399       .  A
C1255      C1256   1.438       .  A
C1256      N1257   1.436       .  S
N1257      H1261   1.043       .  S
N1257      H1262   1.045       .  S
N1260      H1263   1.045       .  S
N1260      H1264   1.046       .  S
C1265      H1272   1.082       .  S
C1265      C1266   1.423       .  A
C1265      C1270   1.412       .  A
C1266      C1267   1.415       .  A
C1267      C1268   1.415       .  A
C1267      N1274   1.431       .  S
C1268      H1273   1.083       .  S
C1268      C1269   1.422       .  A
C1269      C1270   1.404       .  A
C1270      N1271   1.433       .  S
N1271      H1275   1.045       .  S
N1271      H1276   1.041       .  S
N1274      H1277   1.045       .  S
N1274      H1278   1.046       .  S
C1279      H1286   1.084       .  S
C1279      C1280   1.404       .  A
C1279      C1284   1.405       .  A
C1281      C1282   1.405       .  A
C1281      N1288   1.433       .  S
C1282      H1287   1.081       .  S
C1283      C1284   1.417       .  A
C1284      N1285   1.433       .  S
N1285      H1289   1.046       .  S
N1285      H1290   1.044       .  S
N1288      H1291   1.047   1_655  S
N1288      H1292   1.044   1_655  S
C1293      H1300   1.080       .  S
C1293      C1294   1.410       .  A
C1293      C1298   1.418       .  A
C1294      C1295   1.418       .  A
C1295      C1296   1.413       .  A
C1295      N1302   1.427       .  S
C1296      H1301   1.084       .  S
C1296      C1297   1.408       .  A
C1297      C1298   1.418       .  A
C1298      N1299   1.432       .  S
N1299      H1303   1.046       .  S
N1299      H1304   1.045       .  S
N1302      H1305   1.045       .  S
N1302      H1306   1.040       .  S
C1307      H1314   1.083       .  S
C1307      C1308   1.409       .  A
C1307      C1312   1.427       .  A
C1308      C1309   1.434       .  A
C1309      C1310   1.407       .  A
C1310      H1315   1.084       .  S
C1310      C1311   1.402       .  A
C1311      C1312   1.427       .  A
C1312      N1313   1.428       .  S
N1313      H1317   1.045       .  S
N1313      H1318   1.046       .  S
N1316      H1319   1.044       .  S
N1316      H1320   1.044       .  S
C1321      H1328   1.084       .  S
C1321      C1322   1.399       .  A
C1321      C1326   1.399       .  A
C1322      C1323   1.408       .  A
C1323      C1324   1.393       .  A
C1323      N1330   1.433       .  S
C1324      C1325   1.404       .  A
C1325      C1326   1.410       .  A
C1326      N1327   1.431   1_554  S
N1327      H1331   1.045   1_556  S
N1327      H1332   1.046       .  S
N1330      H1333   1.044       .  S
N1330      H1334   1.046       .  S
C1335      H1342   1.084       .  S
C1335      C1336   1.396       .  A
C1335      C1340   1.409       .  A
C1336      C1337   1.415       .  A
C1337      C1338   1.418       .  A
C1337      N1344   1.428       .  S
C1338      H1343   1.083       .  S
C1338      C1339   1.406       .  A
C1339      C1340   1.439       .  A
C1340      N1341   1.432       .  S
N1341      H1345   1.046       .  S
N1341      H1346   1.044       .  S
N1344      H1347   1.040       .  S
N1344      H1348   1.046       .  S
C1349      C1350   1.399       .  A
C1349      C1354   1.413       .  A
C1350      C1351   1.417       .  A
C1351      C1352   1.413       .  A
C1351      N1358   1.432       .  S
C1352      H1357   1.082       .  S
C1352      C1353   1.402       .  A
C1353      C1354   1.423       .  A
C1354      N1355   1.431       .  S
N1355      H1360   1.045       .  S
N1358      H1361   1.046       .  S
N1358      H1362   1.045       .  S
C1363      H1370   1.083       .  S
C1363      C1364   1.408       .  A
C1363      C1368   1.409       .  A
C1365      C1366   1.409       .  A
C1365      N1372   1.432       .  S
C1366      H1371   1.084       .  S
C1367      C1368   1.415       .  A
C1368      N1369   1.432       .  S
N1369      H1373   1.046       .  S
N1369      H1374   1.045       .  S
N1372      H1375   1.046       .  S
N1372      H1376   1.045       .  S
C1377      C1378   1.410       .  A
C1377      C1382   1.413       .  A
C1378      C1379   1.417       .  A
C1379      C1380   1.417       .  A
C1379      N1386   1.431       .  S
C1380      H1385   1.083       .  S
C1380      C1381   1.410       .  A
C1381      C1382   1.406       .  A
C1382      N1383   1.431   1_545  S
N1383      H1388   1.044       .  S
N1386      H1389   1.046       .  S
N1386      H1390   1.045       .  S
C1391      H1398   1.080       .  S
C1391      C1392   1.411       .  A
C1391      C1396   1.419       .  A
C1392      C1393   1.416       .  A
C1393      C1394   1.411       .  A
C1393      N1400   1.436       .  S
C1394      H1399   1.083       .  S
C1394      C1395   1.411       .  A
C1395      C1396   1.423       .  A
C1396      N1397   1.431       .  S
N1397      H1401   1.045       .  S
N1397      H1402   1.046       .  S
N1400      H1403   1.045       .  S
N1400      H1404   1.043       .  S
C1405      H1412   1.084       .  S
C1405      C1410   1.399       .  A
C1406      C1407   1.412       .  A
C1407      C1408   1.399       .  A
C1407      N1414   1.433       .  S
C1408      H1413   1.083       .  S
C1408      C1409   1.403       .  A
C1410      N1411   1.437       .  S
N1411      H1415   1.047       .  S
N1411      H1416   1.043       .  S
N1414      H1417   1.046       .  S
N1414      H1418   1.046       .  S
C1419      H1426   1.078       .  S
C1419      C1420   1.425       .  A
C1419      C1424   1.421       .  A
C1420      C1421   1.427       .  A
C1421      C1422   1.413       .  A
C1421      N1428   1.430       .  S
C1422      H1427   1.085       .  S
C1422      C1423   1.407       .  A
C1423      C1424   1.410       .  A
C1424      N1425   1.431       .  S
N1425      H1429   1.046       .  S
N1425      H1430   1.045       .  S
N1428      H1431   1.043       .  S
N1428      H1432   1.045       .  S
C1433      H1440   1.080       .  S
C1433      C1434   1.409       .  A
C1433      C1438   1.411       .  A
C1434      C1435   1.434       .  A
C1435      C1436   1.412       .  A
C1436      C1437   1.396       .  A
C1437      C1438   1.415       .  A
C1438      N1439   1.433       .  S
N1439      H1443   1.043       .  S
N1439      H1444   1.046       .  S
N1442      H1446   1.044       .  S
C1447      H1454   1.084       .  S
C1447      C1448   1.403       .  A
C1447      C1452   1.411       .  A
C1448      C1449   1.423       .  A
C1449      C1450   1.405       .  A
C1450      H1455   1.084       .  S
C1450      C1451   1.401       .  A
C1451      C1452   1.420       .  A
C1452      N1453   1.431   1_545  S
N1453      H1457   1.044       .  S
N1453      H1458   1.045       .  S
N1456      H1459   1.046       .  S
N1456      H1460   1.045       .  S
C1461      H1468   1.084       .  S
C1461      C1462   1.409       .  A
C1461      C1466   1.418       .  A
C1462      C1463   1.413       .  A
C1463      C1464   1.409       .  A
C1463      N1470   1.433       .  S
C1464      H1469   1.081       .  S
C1464      C1465   1.402       .  A
C1465      C1466   1.412       .  A
C1466      N1467   1.432       .  S
N1467      H1471   1.045       .  S
N1467      H1472   1.046       .  S
N1470      H1473   1.046       .  S
N1470      H1474   1.046       .  S
C1475      C1476   1.409       .  A
C1475      C1480   1.422       .  A
C1476      C1477   1.420       .  A
C1477      C1478   1.415       .  A
C1477      N1484   1.432       .  S
C1478      H1483   1.082   1_545  S
C1478      C1479   1.409       .  A
C1479      C1480   1.418       .  A
C1480      N1481   1.429       .  S
N1481      H1486   1.045       .  S
N1484      H1487   1.044       .  S
N1484      H1488   1.046   1_545  S
