geometry optimzed in LAMMPS
_audit_creation_date              2020-11-30 
_audit_creation_method            'lammps2cif' 
_symmetry_space_group_name_H-M    'P1' 
_symmetry_Int_Tables_number       1 
_symmetry_cell_setting            triclinic 
loop_ 
_symmetry_equiv_pos_as_xyz 
  x,y,z 
_cell_length_a                    27.90717301 
_cell_length_b                    28.58038329085128 
_cell_length_c                    32.189433076344464 
_cell_angle_alpha                 89.51752648410792 
_cell_angle_beta                  92.47007423514081 
_cell_angle_gamma                 120.44543067582674 
loop_ 
_atom_site_label 
_atom_site_type_symbol 
_atom_site_fract_x 
_atom_site_fract_y 
_atom_site_fract_z 
_atom_site_charge 
C1          C  0.20436936  0.21715683  0.15492444     0.04100
C2          C  0.19719174  0.25793945  0.17333684    -0.12000
C3          C  0.23796290  0.29601585  0.20212127     0.01600
C4          C  0.28538086  0.29231280  0.21276900    -0.10600
C5          C  0.29453571  0.25353808  0.19401845     0.04100
C6          C  0.25360252  0.21586086  0.16543167    -0.10000
H7          H  0.16200092  0.26218818  0.16341853     0.09700
H8          H  0.31773789  0.32273742  0.23341906     0.07200
H9          H  0.26110768  0.18674763  0.15005285     0.07100
C10         C  0.74093902  0.39420916  0.37263603     0.46500
H11         H  0.73733409  0.38822199  0.40665885    -0.02600
C12         C  0.75111656  0.40831485  0.29273154     0.46500
H13         H  0.75620880  0.41473019  0.25878226    -0.02600
C14         C  0.77606723  0.45456343  0.36140995    -0.16300
C15         C  0.77074778  0.36721298  0.35371487    -0.16000
C16         C  0.68399990  0.37132099  0.34741846    -0.16400
C17         C  0.78213835  0.46204287  0.31922189    -0.16400
C18         C  0.77602436  0.37422034  0.31126331    -0.15900
C19         C  0.68851316  0.37910756  0.30471772    -0.16300
C20         C  0.42034803  0.73541344  0.37874745     0.46500
H21         H  0.42490755  0.74253664  0.41274854    -0.02600
C22         C  0.40934082  0.72266748  0.29842886     0.46500
H23         H  0.40451628  0.71754052  0.26406599    -0.02600
C24         C  0.38964409  0.67536058  0.36510626    -0.16300
C25         C  0.38676632  0.75916518  0.35810075    -0.16000
C26         C  0.47620597  0.76144633  0.35712408    -0.16400
C27         C  0.38537185  0.66843546  0.32225034    -0.16400
C28         C  0.38045639  0.75211843  0.31554149    -0.15900
C29         C  0.47032142  0.75661784  0.31450474    -0.16300
C30         C  0.07982774  0.89683604  0.14611486     0.04100
C31         C  0.13354665  0.90357061  0.15092524    -0.12000
C32         C  0.14042928  0.86152066  0.16783648     0.01600
C33         C  0.09337447  0.81257821  0.17895349    -0.10600
C34         C  0.03994187  0.80553648  0.17478431     0.04100
C35         C  0.03361053  0.84776925  0.15851124    -0.10000
H36         H  0.16968086  0.94148465  0.14261905     0.09700
H37         H  0.09875866  0.78082152  0.19298226     0.07200
H38         H  0.99221473  0.84229449  0.15578622     0.07100
C39         C  0.90972342  0.06862564  0.14878012     0.04100
C40         C  0.91795525  0.12020129  0.15922549    -0.12000
C41         C  0.87395364  0.12486735  0.17446216     0.01600
C42         C  0.82192855  0.07808147  0.17929289    -0.10600
C43         C  0.81285316  0.02658669  0.16969557     0.04100
C44         C  0.85680995  0.02208876  0.15446464    -0.10000
H45         H  0.95810439  0.15638902  0.15564841     0.09700
H46         H  0.78889924  0.08173696  0.19258678     0.07200
H47         H  0.84974236  0.98191548  0.14784201     0.07100
C48         C  0.08566604  0.89621905  0.52474642     0.04100
C49         C  0.13205229  0.89308146  0.51233850    -0.12000
C50         C  0.12565929  0.84363079  0.49854308     0.01600
C51         C  0.07305565  0.79693343  0.49857708    -0.10600
C52         C  0.02638879  0.79939601  0.50942914     0.04100
C53         C  0.03266145  0.84883678  0.52312599    -0.10000
H54         H  0.17290281  0.92926564  0.51237923     0.09700
H55         H  0.06769315  0.75873468  0.48758321     0.07200
H56         H  0.99622243  0.85084212  0.53050302     0.07100
C57         C  0.94628915  0.08123053  0.50883994     0.04100
C58         C  0.90051101  0.03046025  0.49578619    -0.12000
C59         C  0.86078947  0.02761886  0.46577322     0.01600
C60         C  0.86626502  0.07576131  0.44992871    -0.10600
C61         C  0.90935126  0.12646247  0.46414702     0.04100
C62         C  0.95004426  0.12916426  0.49308306    -0.10000
H63         H  0.89513480  0.99347812  0.50959952     0.09700
H64         H  0.83358546  0.07379579  0.42919377     0.07200
H65         H  0.98238742  0.16831644  0.50528619     0.07100
C66         C  0.23493904  0.23250643  0.50518839     0.04100
C67         C  0.27896433  0.23260983  0.48521359    -0.12000
C68         C  0.32005558  0.27958315  0.46720330     0.01600
C69         C  0.31601818  0.32617854  0.46811540    -0.10600
C70         C  0.27543051  0.32910688  0.49064819     0.04100
C71         C  0.23356523  0.28121045  0.50840139    -0.10000
H72         H  0.28103115  0.19587683  0.48322344     0.09700
H73         H  0.34723606  0.36187297  0.45270218     0.07200
H74         H  0.20187795  0.28210922  0.52602397     0.07100
O75         O  0.20797805  0.14729571  0.53438864    -0.79900
O76         O  0.01610889  0.96092123  0.63200460    -0.64600
O77         O  0.09996581  0.06223143  0.54819249    -1.11200
C78         C  0.06829186  0.18746878  0.62187507     1.07000
O79         O  0.95565650  0.98973014  0.63285194    -0.77800
O80         O  0.96284009  0.06162905  0.57725862    -0.65400
Ni81       Ni  0.16728566  0.06934739  0.52969578     1.34900
C82         C  0.98458268  0.08457696  0.54373365     0.85700
O83         O  0.05912814  0.95091503  0.56214905    -0.78300
O84         O  0.13411560  0.99202404  0.52307926    -0.88600
C85         C  0.96827151  0.95334999  0.63954987     0.85300
O86         O  0.19896996  0.06661194  0.58221269    -0.66800
O87         O  0.02505369  0.14500127  0.63380664    -0.86100
C88         C  0.17874081  0.04336137  0.61601060     0.86100
C89         C  0.09300151  0.94949864  0.53737940     1.07700
H90         H  0.08721097  0.08350108  0.64065279     0.39500
O91         O  0.06336565  0.07331342  0.61645144    -1.08800
O92         O  0.03714890  0.11136744  0.53963019    -0.65400
Ni93       Ni  0.10249126  0.12412851  0.57372305     1.26300
O94         O  0.12697618  0.02178039  0.62338574    -0.65600
O95         O  0.10477363  0.18520569  0.60086672    -0.77900
C96         C  0.19336784  0.18153192  0.52434830     0.85500
O97         O  0.14533504  0.17301203  0.53149245    -0.65100
Ni98       Ni  0.99473404  0.06734505  0.63188895     1.27400
Ni99       Ni  0.06091446  0.01111634  0.59044961     1.26100
H100        H  0.07494080  0.05153290  0.52383615     0.40100
O101        O  0.94501278  0.01383226  0.12565278    -0.79900
O102        O  0.14438130  0.02664283  0.03173508    -0.64600
O103        O  0.05702258  0.04232124  0.11488919    -1.11200
C104        C  0.08240268  0.19119605  0.03211466     1.12000
O105        O  0.20513303  0.11420015  0.03817545    -0.77800
O106        O  0.19052590  0.18152340  0.08685231    -0.65400
Ni107      Ni  0.99045712  0.98107141  0.13337226     1.34900
C108        C  0.16686858  0.18216977  0.11944330     0.85700
O109        O  0.10200603  0.97363756  0.10319319    -0.78300
O110        O  0.02836384  0.94144805  0.14355154    -0.88600
C111        C  0.19179153  0.06734564  0.02410387     0.85300
O112        O  0.96115575  0.94533503  0.08104850    -0.66800
O113        O  0.12811590  0.19413052  0.02339513    -0.86100
C114        C  0.98215659  0.94640038  0.04670133     0.86100
C115        C  0.07018273  0.94047500  0.13004762     1.07700
H116        H  0.07245870  0.07601226  0.02162323     0.39500
O117        O  0.09502994  0.08966941  0.04683405    -1.08800
O118        O  0.11393033  0.15444910  0.12232433    -0.65400
Ni119      Ni  0.05165443  0.09935215  0.08689541     1.26300
O120        O  0.03380244  0.97764043  0.04000470    -0.65600
O121        O  0.04720161  0.15503241  0.05570629    -0.77900
C122        C  0.95557371  0.06180608  0.13314559     0.85500
O123        O  0.00314523  0.10258182  0.12631242    -0.65100
Ni124      Ni  0.16352924  0.15146478  0.03224427     1.27400
Ni125      Ni  0.09866078  0.03119933  0.07367631     1.26100
H126        H  0.08176535  0.05788796  0.13966409     0.40100
C127        C  0.07529985  0.24153597  0.63268018     0.04100
C128        C  0.02848931  0.24547172  0.64285387    -0.12000
C129        C  0.03400985  0.29581549  0.65359850     0.01600
C130        C  0.08721472  0.34197287  0.65492597    -0.10600
C131        C  0.13431907  0.33964726  0.64463825     0.04100
C132        C  0.12821845  0.28932186  0.63329090    -0.10000
H133        H  0.98760361  0.20933068  0.64242479     0.09700
H134        H  0.09274566  0.38002549  0.66626716     0.07200
H135        H  0.16458703  0.28730618  0.62575716     0.07100
C136        C  0.07038884  0.23187592  0.01285761     0.04100
C137        C  0.01537813  0.21854029  0.00124496    -0.12000
C138        C  0.00600850  0.25517445  0.97776814     0.01600
C139        C  0.05107285  0.30559380  0.96766925    -0.10600
C140        C  0.10557329  0.31966626  0.97911360     0.04100
C141        C  0.11516571  0.28294492  0.00184150    -0.10000
H142        H  0.98050104  0.17919837  0.00858799     0.09700
H143        H  0.04377792  0.33359610  0.94930566     0.07200
H144        H  0.15767624  0.29317961  0.00917383     0.07100
C145        C  0.74354362  0.40481414  0.86158427     0.46500
H146        H  0.74723207  0.40746368  0.89592476    -0.02600
C147        C  0.73688855  0.40173954  0.78066558     0.46500
H148        H  0.73389429  0.40135645  0.74619392    -0.02600
C149        C  0.76525583  0.37005220  0.84187835    -0.16300
C150        C  0.68343489  0.37876121  0.84393378    -0.16000
C151        C  0.77518370  0.46144428  0.84174481    -0.16400
C152        C  0.76409838  0.37047894  0.79896401    -0.16400
C153        C  0.68005836  0.37806640  0.80096123    -0.15900
C154        C  0.77256814  0.45894019  0.79917533    -0.16300
C155        C  0.41380684  0.71761616  0.87066416     0.46500
H156        H  0.41054659  0.70968816  0.90449661    -0.02600
C157        C  0.42055123  0.73466891  0.79111787     0.46500
H158        H  0.42388824  0.74298600  0.75741779    -0.02600
C159        C  0.38558625  0.66468037  0.84283231    -0.16300
C160        C  0.38547455  0.75075013  0.85619754    -0.16000
C161        C  0.47476892  0.74914550  0.85634004    -0.16400
C162        C  0.38935792  0.67392241  0.80038908    -0.16400
C163        C  0.38977040  0.75973273  0.81371632    -0.15900
C164        C  0.47751248  0.75607748  0.81382336    -0.16300
C165        C  0.21939419  0.04123455  0.64635203     0.04100
C166        C  0.21461604  0.99111391  0.65796423    -0.12000
C167        C  0.26099403  0.98976776  0.67621420     0.01600
C168        C  0.31110115  0.03872741  0.68388308    -0.10600
C169        C  0.31647460  0.08859056  0.67291511     0.04100
C170        C  0.27046827  0.08957961  0.65453749    -0.10000
H171        H  0.17660186  0.95338513  0.65017706     0.09700
H172        H  0.34632178  0.03795944  0.69873411     0.07200
H173        H  0.27524400  0.12803003  0.64467358     0.07100
C174        C  0.92311067  0.90056075  0.65471088     0.04100
C175        C  0.92846281  0.85424754  0.65831372    -0.12000
C176        C  0.88284531  0.80446534  0.66996839     0.01600
C177        C  0.83217272  0.80124444  0.67846673    -0.10600
C178        C  0.82640476  0.84707758  0.67564214     0.04100
C179        C  0.87201118  0.89633746  0.66415520    -0.10000
H180        H  0.96729489  0.85653656  0.65158307     0.09700
H181        H  0.79773185  0.76323862  0.68867102     0.07200
H182        H  0.86702685  0.93152036  0.66231960     0.07100
C183        C  0.94300272  0.90821977  0.01398899     0.04100
C184        C  0.89713350  0.91311552  0.99987390    -0.12000
C185        C  0.85375694  0.87227932  0.97480423     0.01600
C186        C  0.85560426  0.82557983  0.96499382    -0.10600
C187        C  0.89934535  0.81850116  0.98016357     0.04100
C188        C  0.94395167  0.86069304  0.00376322    -0.10000
H189        H  0.89437375  0.94790846  0.00946099     0.09700
H190        H  0.82152789  0.79344586  0.94655260     0.07200
H191        H  0.97742119  0.85515018  0.01618431     0.07100
C192        C  0.23427671  0.06220951  0.99999128     0.04100
C193        C  0.22692900  0.01166157  0.98559516    -0.12000
C194        C  0.26834812  0.00978256  0.96226677     0.01600
C195        C  0.31692765  0.05918965  0.95464136    -0.10600
C196        C  0.32484409  0.10980475  0.96767796     0.04100
C197        C  0.28362224  0.11066531  0.99037961    -0.10000
H198        H  0.18950147  0.97416574  0.99254840     0.09700
H199        H  0.34965399  0.05815556  0.93849936     0.07200
H200        H  0.28932483  0.14965762  0.99932792     0.07100
C201        C  0.59296194  0.77516823  0.93679364    -0.13400
C202        C  0.63298302  0.82878789  0.92747413     0.17000
C203        C  0.61773309  0.85685505  0.89853701     0.03300
C204        C  0.56528750  0.83037239  0.87787402    -0.11900
C205        C  0.52623378  0.77563838  0.88491482    -0.02900
C206        C  0.53978692  0.74850539  0.91634232     0.02500
C207        C  0.69247794  0.85032729  0.94146876     0.09400
N208        N  0.65494728  0.91257905  0.88967886     0.65700
H209        H  0.55539892  0.85281475  0.85519039     0.18600
N210        N  0.50268636  0.69294298  0.92588208     0.76200
H211        H  0.60410568  0.75261158  0.95842252     0.10200
C212        C  0.71082006  0.85490196  0.98368185     0.03900
C213        C  0.76536378  0.86655970  0.99406900    -0.04900
C214        C  0.80227427  0.87353171  0.96308911    -0.23200
C215        C  0.78496791  0.87209369  0.92109731     0.13100
C216        C  0.73057489  0.86012960  0.91089086    -0.12400
N217        N  0.67448628  0.84657845  0.01639517     0.64800
H218        H  0.77794133  0.86726377  0.02649689     0.12600
N219        N  0.82162213  0.88130546  0.88834854     0.61400
H220        H  0.71666961  0.85521015  0.87869881     0.08800
O221        O  0.46796860  0.68242852  0.95344690    -0.40000
O222        O  0.51735973  0.65875478  0.91873661    -0.39200
O223        O  0.65021793  0.94833242  0.90871245    -0.39200
O224        O  0.67910724  0.92453129  0.85572113    -0.36900
O225        O  0.84768109  0.92795732  0.87286035    -0.37800
O226        O  0.81691212  0.84126948  0.86839184    -0.34000
O227        O  0.65234556  0.80190470  0.03504540    -0.35400
O228        O  0.67742582  0.88739706  0.03380557    -0.39700
C229        C  0.67355427  0.80625905  0.68195317    -0.13400
C230        C  0.67560445  0.83546214  0.71740865     0.17000
C231        C  0.72786448  0.87213126  0.73636316     0.03300
C232        C  0.77655531  0.87677809  0.72141088    -0.11900
C233        C  0.77428362  0.84490041  0.68761720    -0.02900
C234        C  0.72220566  0.81047531  0.66708719     0.02500
C235        C  0.62415125  0.81616910  0.74070924     0.09400
N236        N  0.73137933  0.89961029  0.77405381     0.65700
H237        H  0.81606462  0.90328750  0.73771086     0.18600
N238        N  0.71755092  0.77770549  0.63222566     0.76200
H239        H  0.63358053  0.77712754  0.66750710     0.10200
C240        C  0.59031523  0.83969061  0.73781773     0.03900
C241        C  0.54317271  0.81960867  0.76204357    -0.04900
C242        C  0.52919952  0.77663057  0.78968086    -0.23200
C243        C  0.56301445  0.75259779  0.79172172     0.13100
C244        C  0.60982245  0.77283023  0.76758021    -0.12400
N245        N  0.60320052  0.88394584  0.71071442     0.64800
H246        H  0.51741562  0.83795004  0.75944579     0.12600
N247        N  0.55017018  0.70648547  0.81671666     0.61400
H248        H  0.63533298  0.75415547  0.76968840     0.08800
O249        O  0.71073172  0.79176960  0.59622363    -0.40000
O250        O  0.70501676  0.72918878  0.63811755    -0.39200
O251        O  0.73598595  0.88006247  0.80816358    -0.39200
O252        O  0.72243353  0.93866826  0.77363834    -0.36900
O253        O  0.58305298  0.71257873  0.84706816    -0.37800
O254        O  0.52195268  0.65996885  0.80006552    -0.34000
O255        O  0.58311524  0.87423628  0.67382385    -0.35400
O256        O  0.62238393  0.93090493  0.72605629    -0.39700
C257        C  0.28147904  0.90299487  0.89729451    -0.13400
C258        C  0.28481084  0.86901171  0.92841423     0.17000
C259        C  0.27570549  0.87921207  0.96961469     0.03300
C260        C  0.26613644  0.92213558  0.97914753    -0.11900
C261        C  0.26571464  0.95741074  0.94876600    -0.02900
C262        C  0.27220562  0.94647817  0.90696489     0.02500
C263        C  0.30165702  0.82641915  0.91808492     0.09400
N264        N  0.27646774  0.84645808  0.00287884     0.65700
H265        H  0.26159262  0.92949423  0.01130828     0.18600
N266        N  0.26868731  0.97878117  0.87395831     0.76200
H267        H  0.28749332  0.89663745  0.86529594     0.10200
C268        C  0.27215071  0.78307030  0.88828149     0.03900
C269        C  0.29784916  0.75448620  0.87281481    -0.04900
C270        C  0.35314209  0.76846233  0.88424101    -0.23200
C271        C  0.37874390  0.80593283  0.91807813     0.13100
C272        C  0.35267533  0.83321476  0.93488745    -0.12400
N273        N  0.21674288  0.76773245  0.87266574     0.64800
H274        H  0.27601215  0.72351686  0.84889201     0.12600
N275        N  0.43478495  0.82330042  0.93161544     0.61400
H276        H  0.37595358  0.86484270  0.95811409     0.08800
O277        O  0.22179850  0.97105169  0.86113164    -0.40000
O278        O  0.31232491  0.01878283  0.86086735    -0.39200
O279        O  0.31945819  0.86453170  0.02664392    -0.39200
O280        O  0.23084299  0.80843560  0.01512240    -0.36900
O281        O  0.47395909  0.85624785  0.90972397    -0.37800
O282        O  0.44547889  0.81623046  0.96884246    -0.34000
O283        O  0.19487291  0.73567457  0.84179579    -0.35400
O284        O  0.18742164  0.78202931  0.89157561    -0.39700
C285        C  0.30768521  0.88655399  0.68716360    -0.13400
C286        C  0.27795399  0.85610638  0.72083944     0.17000
C287        C  0.23648597  0.86515784  0.73635865     0.03300
C288        C  0.22836031  0.90650362  0.71961295    -0.11900
C289        C  0.25998309  0.93832873  0.68682140    -0.02900
C290        C  0.29827096  0.92620531  0.66959352     0.02500
C291        C  0.30022977  0.82578876  0.74473484     0.09400
N292        N  0.20310647  0.83343419  0.76955050     0.65700
H293        H  0.19890945  0.91520590  0.73338167     0.18600
N294        N  0.32867244  0.95422907  0.63426875     0.76200
H295        H  0.34079352  0.88172576  0.67558817     0.10200
C296        C  0.30946563  0.78623524  0.72664387     0.03900
C297        C  0.33655282  0.76404983  0.75019725    -0.04900
C298        C  0.36233788  0.78599035  0.78940892    -0.23200
C299        C  0.36020949  0.83162976  0.80418011     0.13100
C300        C  0.32489747  0.84686749  0.78392767    -0.12400
N301        N  0.29658329  0.77190002  0.68351365     0.64800
H302        H  0.33900225  0.73075189  0.73678630     0.12600
N303        N  0.39900600  0.86797949  0.83546280     0.61400
H304        H  0.32295904  0.88107007  0.79612877     0.08800
O305        O  0.38101938  0.98192010  0.63791737    -0.40000
O306        O  0.30590652  0.93733036  0.59860758    -0.39200
O307        O  0.20539467  0.85636515  0.80351415    -0.39200
O308        O  0.16259241  0.78640352  0.76154656    -0.36900
O309        O  0.38396786  0.89245172  0.85937566    -0.37800
O310        O  0.45025764  0.88865757  0.83002317    -0.34000
O311        O  0.33561814  0.79103845  0.65856563    -0.35400
O312        O  0.25020486  0.73155013  0.67230282    -0.39700
C313        C  0.84212925  0.65777666  0.66393226    -0.13400
C314        C  0.86396294  0.65234714  0.70236560     0.17000
C315        C  0.90302367  0.69921688  0.72513540     0.03300
C316        C  0.91422183  0.75046189  0.71164659    -0.11900
C317        C  0.88701399  0.75520236  0.67551029    -0.02900
C318        C  0.85353448  0.70878982  0.65029462     0.02500
C319        C  0.83937124  0.59839114  0.72160220     0.09400
N320        N  0.92683318  0.69463805  0.76409945     0.65700
H321        H  0.94003827  0.78581018  0.73132270     0.18600
N322        N  0.82790265  0.71246587  0.61203329     0.76200
H323        H  0.81334715  0.62192922  0.64570586     0.10200
C324        C  0.78299061  0.57079874  0.73179452     0.03900
C325        C  0.76250406  0.52503736  0.75653893    -0.04900
C326        C  0.79717381  0.50657661  0.77215513    -0.23200
C327        C  0.85285491  0.53212787  0.76032030     0.13100
C328        C  0.87343467  0.57766723  0.73483367    -0.12400
N329        N  0.74686755  0.59074398  0.71955544     0.64800
H330        H  0.71962791  0.50488123  0.76499907     0.12600
N331        N  0.88908477  0.51288423  0.77395144     0.61400
H332        H  0.91664592  0.59819476  0.72671548     0.08800
O333        O  0.77564393  0.69027983  0.60868018    -0.40000
O334        O  0.85542538  0.72562910  0.57959344    -0.39200
O335        O  0.97545725  0.70200982  0.76561573    -0.39200
O336        O  0.89557942  0.67138525  0.79384843    -0.36900
O337        O  0.89920682  0.48572534  0.74877411    -0.37800
O338        O  0.92264594  0.53621241  0.80457109    -0.34000
O339        O  0.71030703  0.56662689  0.69075701    -0.35400
O340        O  0.74335238  0.62387999  0.74306555    -0.39700
C341        C  0.84405348  0.66736375  0.96640855    -0.13400
C342        C  0.87720000  0.66698971  0.93485596     0.17000
C343        C  0.92376649  0.71720338  0.92397572     0.03300
C344        C  0.93324324  0.76600066  0.94214529    -0.11900
C345        C  0.89681890  0.76634305  0.97054414    -0.02900
C346        C  0.85296945  0.71612423  0.98388906     0.02500
C347        C  0.85491672  0.61577268  0.90934703     0.09400
N348        N  0.95894080  0.72074039  0.89178500     0.65700
H349        H  0.96692375  0.80422904  0.93151286     0.18600
N350        N  0.81542452  0.71389897  0.01376011     0.76200
H351        H  0.80839946  0.62951084  0.97552520     0.10200
C352        C  0.88081512  0.58420520  0.90774751     0.03900
C353        C  0.85428743  0.53414767  0.88572062    -0.04900
C354        C  0.80134942  0.51372678  0.86615953    -0.23200
C355        C  0.77471832  0.54440006  0.86903955     0.13100
C356        C  0.80209529  0.59513121  0.88946322    -0.12400
N357        N  0.93199907  0.60018685  0.93042363     0.64800
H358        H  0.87481582  0.51063904  0.88447794     0.12600
N359        N  0.71823443  0.52307039  0.85442036     0.61400
H360        H  0.78062389  0.61771404  0.89145594     0.08800
O361        O  0.81957781  0.70001772  0.05044422    -0.40000
O362        O  0.77088141  0.71184645  0.00132382    -0.39200
O363        O  0.95386607  0.73937418  0.85729914    -0.39200
O364        O  0.00539722  0.72562695  0.90209989    -0.36900
O365        O  0.68002827  0.48923261  0.87662141    -0.37800
O366        O  0.70698372  0.54957153  0.82819477    -0.34000
O367        O  0.93041641  0.58069877  0.96599777    -0.35400
O368        O  0.97605178  0.61881385  0.91082567    -0.39700
C369        C  0.54501745  0.32271178  0.73480920    -0.13400
C370        C  0.52573664  0.26683441  0.73582992     0.17000
C371        C  0.55972711  0.24915504  0.75631789     0.03300
C372        C  0.60943862  0.28665519  0.77697670    -0.11900
C373        C  0.62769571  0.34196075  0.77690725    -0.02900
C374        C  0.59574035  0.36039010  0.75487000     0.02500
C375        C  0.47185088  0.22748997  0.71414859     0.09400
N376        N  0.54498742  0.19337537  0.75647462     0.65700
H377        H  0.63432518  0.27241224  0.79323025     0.18600
N378        N  0.61420305  0.41683996  0.75170843     0.76200
H379        H  0.52151643  0.33751812  0.71738669     0.10200
C380        C  0.42082677  0.22488596  0.72145585     0.03900
C381        C  0.37056688  0.18038803  0.70620956    -0.04900
C382        C  0.37009991  0.13953935  0.68211345    -0.23200
C383        C  0.42138430  0.14623736  0.67038427     0.13100
C384        C  0.47125876  0.18983383  0.68639900    -0.12400
N385        N  0.41869179  0.26681695  0.74361432     0.64800
H386        H  0.33163877  0.17704623  0.71423911     0.12600
N387        N  0.42402401  0.11008310  0.64149578     0.61400
H388        H  0.51009332  0.19430346  0.67693391     0.08800
O389        O  0.59217985  0.43666426  0.77360342    -0.40000
O390        O  0.63723442  0.44092844  0.71902567    -0.39200
O391        O  0.56712411  0.17742570  0.73108702    -0.39200
O392        O  0.52575781  0.16630776  0.78885040    -0.36900
O393        O  0.41281014  0.11296681  0.60350035    -0.37800
O394        O  0.45307348  0.08898868  0.65141343    -0.34000
O395        O  0.41822727  0.30435699  0.72300042    -0.35400
O396        O  0.39821089  0.25655549  0.77895478    -0.39700
C397        C  0.57663564  0.28004724  0.91943913    -0.13400
C398        C  0.53114067  0.28626156  0.90910631     0.17000
C399        C  0.53805117  0.32795153  0.88226866     0.03300
C400        C  0.58855828  0.35910641  0.86272974    -0.11900
C401        C  0.63355913  0.35050116  0.87045407    -0.02900
C402        C  0.62802192  0.31247276  0.90142071     0.02500
C403        C  0.47557428  0.24565753  0.92344771     0.09400
N404        N  0.49416911  0.33937044  0.87530509     0.65700
H405        H  0.59255390  0.38996887  0.84124117     0.18600
N406        N  0.67288773  0.30463295  0.91477289     0.76200
H407        H  0.57190444  0.24893466  0.94115331     0.10200
C408        C  0.43917746  0.20119036  0.89769250     0.03900
C409        C  0.38844203  0.16107764  0.91203059    -0.04900
C410        C  0.37427487  0.16093719  0.95329825    -0.23200
C411        C  0.40996460  0.20699374  0.97902099     0.13100
C412        C  0.45998377  0.24903993  0.96360635    -0.12400
N413        N  0.45655446  0.19150665  0.85935236     0.64800
H414        H  0.36155532  0.12736798  0.89124691     0.12600
N415        N  0.39815483  0.21115165  0.02110904     0.61400
H416        H  0.48785077  0.28328003  0.98365747     0.08800
O417        O  0.70476878  0.33363515  0.94459155    -0.40000
O418        O  0.66739035  0.25856986  0.90896325    -0.39200
O419        O  0.48640799  0.36626154  0.90234754    -0.39200
O420        O  0.45627939  0.31258981  0.84802525    -0.36900
O421        O  0.41999164  0.19668259  0.04973780    -0.37800
O422        O  0.38249183  0.24416841  0.02978033    -0.34000
O423        O  0.47577121  0.15996769  0.85953768    -0.35400
O424        O  0.43671900  0.19887641  0.82567445    -0.39700
C425        C  0.79369068  0.26071920  0.88499224    -0.13400
C426        C  0.83419722  0.29000072  0.91651780     0.17000
C427        C  0.84921985  0.34440866  0.92455325     0.03300
C428        C  0.82437086  0.36834521  0.90082268    -0.11900
C429        C  0.78607758  0.34007037  0.86791138    -0.02900
C430        C  0.76996075  0.28501055  0.86034833     0.02500
C431        C  0.86792997  0.26695407  0.93383244     0.09400
N432        N  0.89344083  0.37785521  0.95373072     0.65700
H433        H  0.83777817  0.41062293  0.90660747     0.18600
N434        N  0.73066456  0.25302801  0.82758339     0.76200
H435        H  0.78234505  0.21919601  0.87809390     0.10200
C436        C  0.87499672  0.26043858  0.97683562     0.03900
C437        C  0.91653734  0.24942545  0.99099787    -0.04900
C438        C  0.95015744  0.24356832  0.96287558    -0.23200
C439        C  0.93771518  0.24268964  0.91982118     0.13100
C440        C  0.89740870  0.25497419  0.90575512    -0.12400
N441        N  0.84069352  0.26473473  0.00645813     0.64800
H442        H  0.92504551  0.24912464  0.02413967     0.12600
N443        N  0.96827871  0.23301872  0.88993612     0.61400
H444        H  0.89134713  0.25817052  0.87258339     0.08800
O445        O  0.74816780  0.23999819  0.79680618    -0.40000
O446        O  0.68026339  0.22316983  0.83589748    -0.39200
O447        O  0.94223547  0.40491041  0.94111676    -0.39200
O448        O  0.88192652  0.39305680  0.98662378    -0.36900
O449        O  0.94861278  0.18557973  0.87541181    -0.37800
O450        O  0.00531938  0.27253099  0.87059013    -0.34000
O451        O  0.79483373  0.22300005  0.01387943    -0.35400
O452        O  0.86267571  0.30276496  0.03316679    -0.39700
C453        C  0.31514128  0.51526991  0.87519168    -0.13400
C454        C  0.26975105  0.51116556  0.89597490     0.17000
C455        C  0.26393042  0.55725148  0.89835649     0.03300
C456        C  0.30325193  0.60616076  0.88156171    -0.11900
C457        C  0.34855389  0.61091909  0.86126067    -0.02900
C458        C  0.35458150  0.56480773  0.85762171     0.02500
C459        C  0.23065826  0.46036237  0.91746829     0.09400
N460        N  0.21730415  0.55510497  0.91674737     0.65700
H461        H  0.29730085  0.64072205  0.88343049     0.18600
N462        N  0.40118748  0.56815598  0.83792274     0.76200
H463        H  0.32062145  0.48041745  0.87349911     0.10200
C464        C  0.19267026  0.41247655  0.89526523     0.03900
C465        C  0.15359425  0.36716816  0.91647449    -0.04900
C466        C  0.15143063  0.36783677  0.95979246    -0.23200
C467        C  0.19008285  0.41495571  0.98243595     0.13100
C468        C  0.22915623  0.46083123  0.96113211    -0.12400
N469        N  0.19052475  0.40974664  0.85099359     0.64800
H470        H  0.12382310  0.33117699  0.89876876     0.12600
N471        N  0.18911732  0.41749306  0.02667802     0.61400
H472        H  0.25794980  0.49733515  0.97868229     0.08800
O473        O  0.39439986  0.54549952  0.80294802    -0.40000
O474        O  0.44673724  0.58550457  0.85836750    -0.39200
O475        O  0.22533413  0.58136409  0.95014969    -0.39200
O476        O  0.17486645  0.54350981  0.89373353    -0.36900
O477        O  0.22432969  0.41210852  0.04890398    -0.37800
O478        O  0.16235227  0.43690953  0.04276770    -0.34000
O479        O  0.21741106  0.39139800  0.83358155    -0.35400
O480        O  0.14916276  0.40749001  0.83153679    -0.39700
C481        C  0.93807366  0.35127224  0.67607589    -0.13400
C482        C  0.90683625  0.31712695  0.70787534     0.17000
C483        C  0.91349633  0.27276461  0.71867281     0.03300
C484        C  0.95270467  0.26465501  0.69888611    -0.11900
C485        C  0.98616723  0.30031200  0.66829738    -0.02900
C486        C  0.97732798  0.34338979  0.65621646     0.02500
C487        C  0.86993992  0.33043399  0.73077419     0.09400
N488        N  0.88173680  0.23630928  0.75041187     0.65700
H489        H  0.95872760  0.23164361  0.70893340     0.18600
N490        N  0.00772037  0.37969552  0.62388804     0.76200
H491        H  0.93278589  0.38510706  0.66718421     0.10200
C492        C  0.88915606  0.36164754  0.76777232     0.03900
C493        C  0.85424500  0.37442268  0.78864638    -0.04900
C494        C  0.79947108  0.35658415  0.77377318    -0.23200
C495        C  0.78108956  0.32760403  0.73535216     0.13100
C496        C  0.81624399  0.31444855  0.71451212    -0.12400
N497        N  0.94474376  0.38213359  0.78406280     0.64800
H498        H  0.87071568  0.39951113  0.81654435     0.12600
N499        N  0.72610106  0.30840643  0.71814935     0.61400
H500        H  0.80138970  0.29128152  0.68561672     0.08800
O501        O  0.04440628  0.42797652  0.63334171    -0.40000
O502        O  0.98753353  0.36867431  0.58704984    -0.39200
O503        O  0.83698816  0.19331051  0.74031581    -0.39200
O504        O  0.90439975  0.24033514  0.78600282    -0.36900
O505        O  0.71926906  0.33294924  0.68777045    -0.37800
O506        O  0.68887971  0.26005531  0.72460452    -0.34000
O507        O  0.98219090  0.42893319  0.77395964    -0.35400
O508        O  0.95301435  0.36048050  0.81577017    -0.39700
C509        C  0.27006325  0.44824373  0.69476332    -0.13400
C510        C  0.27102145  0.49495458  0.67978091     0.17000
C511        C  0.23571405  0.48972692  0.64518488     0.03300
C512        C  0.19514599  0.43786575  0.63037046    -0.11900
C513        C  0.18925798  0.39077543  0.64926203    -0.02900
C514        C  0.22993966  0.39637998  0.67959715     0.02500
C515        C  0.30056748  0.54535709  0.70603255     0.09400
N516        N  0.23836680  0.53625163  0.62614324     0.65700
H517        H  0.16511511  0.43430879  0.60622151     0.18600
N518        N  0.22740562  0.34996077  0.69869256     0.76200
H519        H  0.29769777  0.45173640  0.72079932     0.10200
C520        C  0.27363526  0.55225401  0.73933897     0.03900
C521        C  0.30323638  0.59424016  0.76872430    -0.04900
C522        C  0.36045754  0.63097702  0.76619795    -0.23200
C523        C  0.38706970  0.62607157  0.73075612     0.13100
C524        C  0.35703983  0.58281103  0.70180642    -0.12400
N525        N  0.21619051  0.51493410  0.74491830     0.64800
H526        H  0.28082051  0.59806482  0.79382650     0.12600
N527        N  0.44424017  0.66331646  0.72321332     0.61400
H528        H  0.37821361  0.57808149  0.67613427     0.08800
O529        O  0.20564869  0.33492215  0.73345580    -0.40000
O530        O  0.25804453  0.33280139  0.68615997    -0.39200
O531        O  0.26244708  0.55241827  0.59228198    -0.39200
O532        O  0.20474445  0.55092894  0.63632331    -0.36900
O533        O  0.47684879  0.64494901  0.72194559    -0.37800
O534        O  0.45572282  0.70513260  0.70251390    -0.34000
O535        O  0.20272729  0.47877686  0.77193715    -0.35400
O536        O  0.18005679  0.52500988  0.72965079    -0.39700
C537        C  0.27430243  0.78388349  0.26409298    -0.13400
C538        C  0.30696844  0.82383241  0.23575820     0.17000
C539        C  0.36291614  0.83799340  0.23240016     0.03300
C540        C  0.38542625  0.81329602  0.25821737    -0.11900
C541        C  0.35303572  0.77425020  0.28736559    -0.02900
C542        C  0.29628004  0.75830489  0.28919807     0.02500
C543        C  0.27978948  0.84814515  0.21006874     0.09400
N544        N  0.39751476  0.87738644  0.20327496     0.65700
H545        H  0.42886600  0.82549951  0.25604361     0.18600
N546        N  0.25915803  0.71334625  0.31352238     0.76200
H547        H  0.23069964  0.77132688  0.26586247     0.10200
C548        C  0.25105249  0.82339261  0.17216505     0.03900
C549        C  0.20928311  0.83292985  0.15607592    -0.04900
C550        C  0.19600687  0.86757080  0.17685038    -0.23200
C551        C  0.22928203  0.89727927  0.21204183     0.13100
C552        C  0.27046823  0.88699870  0.22855761    -0.12400
N553        N  0.25984107  0.78429705  0.15189798     0.64800
H554        H  0.18414640  0.80991058  0.12897750     0.12600
N555        N  0.21789417  0.93365598  0.23384423     0.61400
H556        H  0.29205027  0.90613659  0.25781743     0.08800
O557        O  0.23342706  0.72093181  0.34152191    -0.40000
O558        O  0.23941281  0.66606834  0.29866019    -0.39200
O559        O  0.42778635  0.92620588  0.21508837    -0.39200
O560        O  0.40872843  0.86157367  0.17054311    -0.36900
O561        O  0.18747032  0.91701325  0.26474475    -0.37800
O562        O  0.24710179  0.98400018  0.22785583    -0.34000
O563        O  0.22519273  0.73442591  0.15566649    -0.35400
O564        O  0.29390371  0.79940614  0.12327503    -0.39700
C565        C  0.33794136  0.84940893  0.40656897    -0.13400
C566        C  0.29713883  0.81230234  0.43252997     0.17000
C567        C  0.28777881  0.75916357  0.43502494     0.03300
C568        C  0.31874590  0.74375356  0.41142724    -0.11900
C569        C  0.35826617  0.78009961  0.38409253    -0.02900
C570        C  0.36885014  0.83403988  0.38262245     0.02500
C571        C  0.25702902  0.82553635  0.44986968     0.09400
N572        N  0.24365770  0.71928632  0.45875941     0.65700
H573        H  0.30999688  0.70226441  0.41299165     0.18600
N574        N  0.41148016  0.87418904  0.35806676     0.76200
H575        H  0.34479217  0.89017683  0.40405367     0.10200
C576        C  0.26256182  0.84609038  0.49061219     0.03900
C577        C  0.22029798  0.85356519  0.50582255    -0.04900
C578        C  0.17234471  0.84040377  0.48097910    -0.23200
C579        C  0.16786646  0.82077978  0.43999052     0.13100
C580        C  0.20995051  0.81372535  0.42495129    -0.12400
N581        N  0.31032463  0.85900143  0.51690960     0.64800
H582        H  0.22423401  0.86832209  0.53739892     0.12600
N583        N  0.12085558  0.80788863  0.41290135     0.61400
H584        H  0.20536345  0.79789954  0.39361440     0.08800
O585        O  0.39768653  0.89338171  0.32745659    -0.40000
O586        O  0.45999871  0.90175317  0.37429388    -0.39200
O587        O  0.19603481  0.68999334  0.44149717    -0.39200
O588        O  0.24966207  0.71959810  0.49784051    -0.36900
O589        O  0.12386184  0.84324352  0.38770565    -0.37800
O590        O  0.08505425  0.75863144  0.40575737    -0.34000
O591        O  0.35185044  0.90649966  0.51688767    -0.35400
O592        O  0.30612700  0.82780809  0.54628629    -0.39700
C593        C  0.65916757  0.92801449  0.18636584    -0.13400
C594        C  0.66259505  0.89693202  0.21903159     0.17000
C595        C  0.71526977  0.90459876  0.23163694     0.03300
C596        C  0.76328598  0.94472983  0.21305394    -0.11900
C597        C  0.76022811  0.97791587  0.18199676    -0.02900
C598        C  0.70724958  0.96818792  0.16778730     0.02500
C599        C  0.61157539  0.86060898  0.24173288     0.09400
N600        N  0.72139741  0.87433930  0.26484075     0.65700
H601        H  0.80357820  0.95186331  0.22451809     0.18600
N602        N  0.70145557  0.99861171  0.13452768     0.76200
H603        H  0.61896132  0.92210479  0.17603896     0.10200
C604        C  0.59104289  0.88231325  0.27054201     0.03900
C605        C  0.54476467  0.84773553  0.29324570    -0.04900
C606        C  0.51658069  0.79135937  0.28686606    -0.23200
C607        C  0.53291395  0.77004719  0.25459613     0.13100
C608        C  0.58128957  0.80447595  0.23319507    -0.12400
N609        N  0.61581241  0.93956963  0.27636394     0.64800
H610        H  0.53037191  0.86515409  0.31590500     0.12600
N611        N  0.50128701  0.71374535  0.24355988     0.61400
H612        H  0.59500635  0.78749065  0.20969625     0.08800
O613        O  0.69469583  0.03790351  0.14281189    -0.40000
O614        O  0.68855623  0.97795020  0.09838010    -0.39200
O615        O  0.72030571  0.83078548  0.25636470    -0.39200
O616        O  0.74418796  0.89843253  0.29891389    -0.36900
O617        O  0.46888093  0.69836803  0.21164320    -0.37800
O618        O  0.50173747  0.67896134  0.26756593    -0.34000
O619        O  0.59575877  0.96404528  0.25591368    -0.35400
O620        O  0.64616906  0.96198715  0.30861395    -0.39700
C621        C  0.62632381  0.81448727  0.39686926    -0.13400
C622        C  0.63674010  0.85990677  0.42046850     0.17000
C623        C  0.59302744  0.87061841  0.42493947     0.03300
C624        C  0.54051689  0.83622332  0.40571712    -0.11900
C625        C  0.53087937  0.79224264  0.38062055    -0.02900
C626        C  0.57443173  0.78094871  0.37673093     0.02500
C627        C  0.69536831  0.89900433  0.43421114     0.09400
N628        N  0.60204844  0.91843213  0.44586109     0.65700
H629        H  0.50786310  0.84579753  0.40852060     0.18600
N630        N  0.56752821  0.73607605  0.35251028     0.76200
H631        H  0.65956492  0.80596008  0.39292305     0.10200
C632        C  0.71381644  0.91158525  0.47634877     0.03900
C633        C  0.76967462  0.95054717  0.48651334    -0.04900
C634        C  0.80792735  0.97644640  0.45532374    -0.23200
C635        C  0.79017823  0.96048365  0.41349132     0.13100
C636        C  0.73434788  0.92290222  0.40339978    -0.12400
N637        N  0.67692998  0.88482640  0.50911776     0.64800
H638        H  0.78263923  0.96226667  0.51880987     0.12600
N639        N  0.82827630  0.98258704  0.38079119     0.61400
H640        H  0.72094608  0.91270883  0.37106535     0.08800
O641        O  0.55058888  0.69110752  0.37005707    -0.40000
O642        O  0.59614523  0.74584490  0.32087781    -0.39200
O643        O  0.61616738  0.96067313  0.42496366    -0.39200
O644        O  0.57969655  0.91363468  0.48008290    -0.36900
O645        O  0.85524072  0.95998759  0.37130498    -0.37800
O646        O  0.82392155  0.01399823  0.35515464    -0.34000
O647        O  0.67126468  0.84070030  0.52235629    -0.35400
O648        O  0.66311638  0.91157314  0.53165759    -0.39700
C649        C  0.25244251  0.44918214  0.47943485    -0.13400
C650        C  0.30771632  0.48938980  0.47218564     0.17000
C651        C  0.35062013  0.47862854  0.48367678     0.03300
C652        C  0.33724607  0.42818350  0.49930663    -0.11900
C653        C  0.28230215  0.38425600  0.49615179    -0.02900
C654        C  0.23907360  0.39602886  0.48963478     0.02500
C655        C  0.32038374  0.53971899  0.44917854     0.09400
N656        N  0.40693781  0.51404934  0.47278867     0.65700
H657        H  0.37121906  0.42115923  0.50727336     0.18600
N658        N  0.18185937  0.35477669  0.49060844     0.76200
H659        H  0.21907720  0.45761635  0.47359586     0.10200
C660        C  0.29134886  0.53803090  0.41160427     0.03900
C661        C  0.31163510  0.58430829  0.38682883    -0.04900
C662        C  0.36385145  0.63074396  0.39622132    -0.23200
C663        C  0.39082786  0.63323114  0.43522016     0.13100
C664        C  0.36702332  0.58917006  0.46199499    -0.12400
N665        N  0.24440452  0.48848783  0.39613033     0.64800
H666        H  0.28812321  0.58225244  0.35860445     0.12600
N667        N  0.44598657  0.67611168  0.44598050     0.61400
H668        H  0.38859807  0.59200499  0.49147996     0.08800
O669        O  0.15545923  0.33252940  0.45691057    -0.40000
O670        O  0.15504179  0.35219350  0.52198040    -0.39200
O671        O  0.44364885  0.53986934  0.50114177    -0.39200
O672        O  0.42183450  0.50752592  0.43787795    -0.36900
O673        O  0.45333584  0.70838218  0.47534619    -0.37800
O674        O  0.48620959  0.67065524  0.43633406    -0.34000
O675        O  0.19617991  0.48190989  0.39657968    -0.35400
O676        O  0.25084922  0.45046200  0.38340494    -0.39700
C677        C  0.86880211  0.55573901  0.44848971    -0.13400
C678        C  0.85204223  0.59437664  0.44636109     0.17000
C679        C  0.80655323  0.58408483  0.41923416     0.03300
C680        C  0.78260038  0.53869077  0.39195432    -0.11900
C681        C  0.80036972  0.50045538  0.39319711    -0.02900
C682        C  0.84221514  0.50822626  0.42369069     0.02500
C683        C  0.88785916  0.64882773  0.46691765     0.09400
N684        N  0.78384101  0.61912132  0.41993867     0.65700
H685        H  0.74926989  0.53272048  0.37009791     0.18600
N686        N  0.85884545  0.46888870  0.43029762     0.76200
H687        H  0.90389641  0.56298650  0.46882295     0.10200
C688        C  0.90631520  0.65566303  0.50932290     0.03900
C689        C  0.94832475  0.70690072  0.52447902    -0.04900
C690        C  0.97144370  0.75182095  0.49826809    -0.23200
C691        C  0.94991913  0.74596661  0.45710623     0.13100
C692        C  0.90925921  0.69485661  0.44169400    -0.12400
N693        N  0.88424167  0.61092114  0.53704606     0.64800
H694        H  0.96499570  0.71097113  0.55614046     0.12600
N695        N  0.97277972  0.79077152  0.42942268     0.61400
H696        H  0.89688376  0.69067949  0.40895829     0.08800
O697        O  0.90721761  0.48084856  0.42108418    -0.40000
O698        O  0.83527250  0.43403773  0.45799716    -0.39200
O699        O  0.78894650  0.64890298  0.38931236    -0.39200
O700        O  0.76559105  0.62575818  0.45326352    -0.36900
O701        O  0.00788113  0.79512054  0.40401290    -0.37800
O702        O  0.94933553  0.81837159  0.42415192    -0.34000
O703        O  0.91314799  0.58989575  0.54764105    -0.35400
O704        O  0.84403620  0.60238110  0.55871516    -0.39700
C705        C  0.90376557  0.60026417  0.28791130    -0.13400
C706        C  0.87594785  0.61820852  0.26090997     0.17000
C707        C  0.81768707  0.58618434  0.25532276     0.03300
C708        C  0.78896321  0.53559529  0.27438467    -0.11900
C709        C  0.81662261  0.51645815  0.30026552    -0.02900
C710        C  0.87510281  0.55023141  0.30816844     0.02500
C711        C  0.91007617  0.66635688  0.23516341     0.09400
N712        N  0.78677637  0.60385980  0.23012630     0.65700
H713        H  0.74439540  0.51092902  0.26894720     0.18600
N714        N  0.90658341  0.53447078  0.33528995     0.76200
H715        H  0.94866317  0.62471094  0.29203119     0.10200
C716        C  0.92582014  0.71949975  0.24794168     0.03900
C717        C  0.96587939  0.76416018  0.22624907    -0.04900
C718        C  0.99188099  0.75698586  0.19245957    -0.23200
C719        C  0.97473454  0.70372445  0.17888363     0.13100
C720        C  0.93395067  0.65912897  0.20009714    -0.12400
N721        N  0.90430071  0.72900240  0.28434189     0.64800
H722        H  0.97902083  0.80480712  0.23732054     0.12600
N723        N  0.99894367  0.69414475  0.14412385     0.61400
H724        H  0.92243558  0.61846775  0.19015128     0.08800
O725        O  0.95040636  0.57016171  0.35442065    -0.40000
O726        O  0.89405821  0.48555816  0.33718461    -0.39200
O727        O  0.77127721  0.58479728  0.19364912    -0.39200
O728        O  0.76096050  0.62318555  0.24782879    -0.36900
O729        O  0.97737322  0.69045982  0.10814933    -0.37800
O730        O  0.03176065  0.67632758  0.15026056    -0.34000
O731        O  0.93044859  0.73612293  0.31886478    -0.35400
O732        O  0.86874236  0.74377530  0.28041929    -0.39700
C733        C  0.52958650  0.30027581  0.36968313    -0.13400
C734        C  0.53053124  0.32737142  0.40540224     0.17000
C735        C  0.58186658  0.35974422  0.42718178     0.03300
C736        C  0.63133042  0.37406452  0.40761580    -0.11900
C737        C  0.63052357  0.34935975  0.36961163    -0.02900
C738        C  0.57815648  0.30659316  0.35383315     0.02500
C739        C  0.47617466  0.31462184  0.42087848     0.09400
N740        N  0.58441740  0.37171934  0.47047008     0.65700
H741        H  0.67017358  0.40396795  0.42287994     0.18600
N742        N  0.57222566  0.26398181  0.32712258     0.76200
H743        H  0.49000484  0.26903323  0.35706590     0.10200
C744        C  0.43913308  0.32493598  0.39655853     0.03900
C745        C  0.38622437  0.30825696  0.41052241    -0.04900
C746        C  0.36962344  0.28283570  0.44899507    -0.23200
C747        C  0.40552414  0.26977515  0.47197750     0.13100
C748        C  0.45783376  0.28498890  0.45735409    -0.12400
N749        N  0.45549272  0.35501623  0.35888530     0.64800
H750        H  0.35904505  0.31813106  0.39226918     0.12600
N751        N  0.39168162  0.24470192  0.51161476     0.61400
H752        H  0.48437572  0.27375797  0.47487177     0.08800
O753        O  0.59641207  0.23848368  0.33796276    -0.40000
O754        O  0.52875209  0.23917519  0.30400650    -0.39200
O755        O  0.58833947  0.34030083  0.49642233    -0.39200
O756        O  0.59668722  0.41861711  0.48220725    -0.36900
O757        O  0.41580828  0.27333217  0.54379929    -0.37800
O758        O  0.37027759  0.19388939  0.51356760    -0.34000
O759        O  0.42989470  0.33232315  0.32504747    -0.35400
O760        O  0.48220662  0.40617260  0.36119640    -0.39700
C761        C  0.79288855  0.27266242  0.42792060    -0.13400
C762        C  0.84810554  0.28735065  0.42075432     0.17000
C763        C  0.87912843  0.33241195  0.39516978     0.03300
C764        C  0.85376610  0.35870773  0.37520518    -0.11900
C765        C  0.79742747  0.34165668  0.37993587    -0.02900
C766        C  0.76777287  0.29974083  0.40838930     0.02500
C767        C  0.86972001  0.25069800  0.43422227     0.09400
N768        N  0.93607985  0.35079690  0.38773844     0.65700
H769        H  0.87815936  0.39184440  0.35476078     0.18600
N770        N  0.71057895  0.28051227  0.41497691     0.76200
H771        H  0.76765850  0.23758288  0.44654221     0.10200
C772        C  0.86800048  0.23260550  0.47559008     0.03900
C773        C  0.88557318  0.19537407  0.48520456    -0.04900
C774        C  0.90389375  0.17447599  0.45435649    -0.23200
C775        C  0.90605912  0.19264849  0.41330355     0.13100
C776        C  0.88907090  0.23013585  0.40367005    -0.12400
N777        N  0.84711329  0.25005074  0.50811672     0.64800
H778        H  0.88209926  0.18048612  0.51666818     0.12600
N779        N  0.92411625  0.17238895  0.38073257     0.61400
H780        H  0.88870972  0.24135995  0.37149808     0.08800
O781        O  0.69681538  0.28806978  0.45002438    -0.40000
O782        O  0.67424323  0.24387354  0.39108231    -0.39200
O783        O  0.94891284  0.34302208  0.35238407    -0.39200
O784        O  0.97372287  0.38469380  0.41260197    -0.36900
O785        O  0.88867687  0.13135095  0.35974305    -0.37800
O786        O  0.97168799  0.20240584  0.36674980    -0.34000
O787        O  0.79833753  0.21847608  0.51947155    -0.35400
O788        O  0.88130915  0.28707610  0.53288240    -0.39700
C789        C  0.86566452  0.34304861  0.24095074    -0.13400
C790        C  0.83972809  0.28671763  0.24531423     0.17000
C791        C  0.79426092  0.26045684  0.27109140     0.03300
C792        C  0.77402213  0.29004655  0.29057397    -0.11900
C793        C  0.79877712  0.34641194  0.28601343    -0.02900
C794        C  0.84610965  0.37334962  0.26114470     0.02500
C795        C  0.85895237  0.25497858  0.22220460     0.09400
N796        N  0.76753534  0.20333767  0.27749176     0.65700
H797        H  0.73860875  0.26862149  0.30997711     0.18600
N798        N  0.87628827  0.43099361  0.25678700     0.76200
H799        H  0.90122459  0.36362466  0.22158340     0.10200
C800        C  0.83423318  0.23120916  0.18310712     0.03900
C801        C  0.84467350  0.19276626  0.16566810    -0.04900
C802        C  0.87978568  0.17754747  0.18640446    -0.23200
C803        C  0.90933233  0.20569477  0.22324108     0.13100
C804        C  0.89836357  0.24388071  0.24105749    -0.12400
N805        N  0.79575393  0.24311306  0.16186501     0.64800
H806        H  0.82201596  0.17170707  0.13719514     0.12600
N807        N  0.94718381  0.19299736  0.24454638     0.61400
H808        H  0.91836834  0.26268329  0.27078661     0.08800
O809        O  0.85833207  0.45199751  0.23043838    -0.40000
O810        O  0.92738718  0.45679881  0.26768522    -0.39200
O811        O  0.78094761  0.18605603  0.30952086    -0.39200
O812        O  0.72208549  0.17244626  0.25791433    -0.36900
O813        O  0.99885622  0.22473720  0.24198130    -0.37800
O814        O  0.92973806  0.15743790  0.27233453    -0.34000
O815        O  0.81012368  0.27087929  0.12925496    -0.35400
O816        O  0.74476523  0.21512680  0.16913692    -0.39700
C817        C  0.44977669  0.30212603  0.18742993    -0.13400
C818        C  0.46193447  0.28144392  0.22374577     0.17000
C819        C  0.41479535  0.24432612  0.24710801     0.03300
C820        C  0.36060504  0.23385864  0.23567342    -0.11900
C821        C  0.35027229  0.25777785  0.20110851    -0.02900
C822        C  0.39528024  0.29080784  0.17622226     0.02500
C823        C  0.52350683  0.30810612  0.23898550     0.09400
N824        N  0.41884544  0.21537035  0.28216265     0.65700
H825        H  0.32626099  0.20753660  0.25481203     0.18600
N826        N  0.38708213  0.31700530  0.14106843     0.76200
H827        H  0.48364269  0.33022496  0.16870949     0.10200
C828        C  0.56037368  0.28858473  0.23024759     0.03900
C829        C  0.61686236  0.31667114  0.24721860    -0.04900
C830        C  0.63765022  0.36263255  0.27405331    -0.23200
C831        C  0.60324060  0.38572963  0.27685236     0.13100
C832        C  0.54780279  0.35880341  0.25970960    -0.12400
N833        N  0.53938667  0.23623025  0.21066992     0.64800
H834        H  0.64244694  0.29857803  0.24364164     0.12600
N835        N  0.62343680  0.43652334  0.29783740     0.61400
H836        H  0.52265072  0.37727644  0.26388109     0.08800
O837        O  0.38693470  0.30008240  0.10499578    -0.40000
O838        O  0.39181562  0.36295150  0.14579340    -0.39200
O839        O  0.40666526  0.22569348  0.31685903    -0.39200
O840        O  0.40823349  0.16746349  0.27574289    -0.36900
O841        O  0.64071663  0.47887847  0.27650395    -0.37800
O842        O  0.60860934  0.43680532  0.33423161    -0.34000
O843        O  0.57224553  0.22492738  0.19358406    -0.35400
O844        O  0.49119112  0.19796914  0.21791921    -0.39700
C845        C  0.34956095  0.52627256  0.28598545    -0.13400
C846        C  0.30336752  0.51140551  0.25859491     0.17000
C847        C  0.28628726  0.54971401  0.25096055     0.03300
C848        C  0.31524340  0.60109324  0.27075637    -0.11900
C849        C  0.35978109  0.61485654  0.29960998    -0.02900
C850        C  0.37744773  0.57678807  0.30670310     0.02500
C851        C  0.27291388  0.45437871  0.24153451     0.09400
N852        N  0.23730886  0.53611667  0.22598489     0.65700
H853        H  0.30104488  0.62959008  0.26499962     0.18600
N854        N  0.42334559  0.58794122  0.33471487     0.76200
H855        H  0.36352549  0.49762397  0.29214197     0.10200
C856        C  0.27118694  0.44169548  0.19888508     0.03900
C857        C  0.25311921  0.38794845  0.18621648    -0.04900
C858        C  0.23855255  0.34640170  0.21528605    -0.23200
C859        C  0.23749580  0.35857678  0.25755979     0.13100
C860        C  0.25354746  0.41170622  0.27003051    -0.12400
N861        N  0.29384327  0.48337358  0.16859950     0.64800
H862        H  0.25558332  0.37973720  0.15380336     0.12600
N863        N  0.22387284  0.31840708  0.28872393     0.61400
H864        H  0.25471877  0.42050149  0.30285524     0.08800
O865        O  0.41314727  0.56897931  0.37082727    -0.40000
O866        O  0.46815217  0.59692803  0.31965870    -0.39200
O867        O  0.19180349  0.51771861  0.24363036    -0.39200
O868        O  0.24240022  0.55800455  0.19100173    -0.36900
O869        O  0.26267408  0.31648877  0.30880396    -0.37800
O870        O  0.17617973  0.29601757  0.30345628    -0.34000
O871        O  0.34372207  0.50230138  0.15919032    -0.35400
O872        O  0.26104867  0.48850871  0.14331616    -0.39700
loop_ 
_geom_bond_atom_site_label_1 
_geom_bond_atom_site_label_2 
_geom_bond_distance 
_geom_bond_site_symmetry_2 
_ccdc_geom_bond_type 
C1            C2   1.417       .  A
C1            C6   1.419       .  A
C1          C108   1.502       .  S
C2            C3   1.417       .  A
C2            H7   1.084       .  S
C3            C4   1.408       .  A
C3          C858   1.496       .  S
C4            C5   1.403       .  A
C4            H8   1.084       .  S
C5            C6   1.411       .  A
C5          C821   1.505       .  S
C6            H9   1.083       .  S
C10          H11   1.108       .  S
C10          C16   1.567       .  S
C10          C15   1.536       .  S
C10          C14   1.541       .  S
C12          H13   1.110       .  S
C12          C18   1.559       .  S
C12          C17   1.564       .  S
C12          C19   1.572       .  S
C14          C17   1.377       .  D
C14         C681   1.513       .  S
C15          C18   1.383       .  D
C15         C765   1.512       .  S
C16          C19   1.391       .  D
C16         C737   1.506       .  S
C17         C709   1.495       .  S
C18         C793   1.504       .  S
C19         C830   1.556       .  S
C20          H21   1.105       .  S
C20          C26   1.542       .  S
C20          C25   1.538       .  S
C20          C24   1.537       .  S
C22          H23   1.110       .  S
C22          C28   1.548       .  S
C22          C27   1.553       .  S
C22          C29   1.538       .  S
C24          C27   1.387       .  D
C24         C662   1.503       .  S
C25          C28   1.377       .  D
C25         C569   1.496       .  S
C26          C29   1.374       .  D
C26         C625   1.492       .  S
C27         C849   1.501       .  S
C28         C541   1.493       .  S
C29         C606   1.493       .  S
C30          C31   1.413       .  A
C30          C35   1.411       .  A
C30         C115   1.488       .  S
C31          C32   1.411       .  A
C31          H36   1.083       .  S
C32          C33   1.407       .  A
C32         C550   1.487       .  S
C33          C34   1.400       .  A
C33          H37   1.084       .  S
C34          C35   1.400       .  A
C34         C718   1.488   1_455  S
C35          H38   1.084   1_455  S
C39          C40   1.413       .  A
C39          C44   1.418       .  A
C39         C122   1.496       .  S
C40          C41   1.409       .  A
C40          H45   1.083       .  S
C41          C42   1.403       .  A
C41         C802   1.482       .  S
C42          C43   1.396       .  A
C42          H46   1.084       .  S
C43          C44   1.405       .  A
C43         C597   1.490   1_545  S
C44          H47   1.083   1_545  S
C48          C49   1.416       .  A
C48          C53   1.410       .  A
C48          C89   1.488       .  S
C49          C50   1.405       .  A
C49          H54   1.084       .  S
C50          C51   1.397       .  A
C50         C578   1.487       .  S
C51          C52   1.398       .  A
C51          H55   1.084       .  S
C52          C53   1.405       .  A
C52         C690   1.475   1_455  S
C53          H56   1.083   1_455  S
C57          C58   1.414       .  A
C57          C62   1.412       .  A
C57          C82   1.486       .  S
C58          C59   1.409       .  A
C58          H63   1.084   1_545  S
C59          C60   1.399       .  A
C59         C634   1.486   1_545  S
C60          C61   1.397       .  A
C60          H64   1.085       .  S
C61          C62   1.409       .  A
C61         C774   1.485       .  S
C62          H65   1.084       .  S
C66          C67   1.410       .  A
C66          C71   1.417       .  A
C66          C96   1.477       .  S
C67          C68   1.392       .  A
C67          H72   1.083       .  S
C68          C69   1.393       .  A
C68         C746   1.485       .  S
C69          C70   1.409       .  A
C69          H73   1.083       .  S
C70          C71   1.410       .  A
C70         C653   1.499       .  S
C71          H74   1.082       .  S
O75         Ni81   1.924       .  S
O75          C96   1.271       .  A
O76         Ni99   1.925   1_565  S
O76          C85   1.274   1_455  A
O77         Ni81   1.906       .  S
O77         Ni99   1.911       .  S
O77         Ni93   1.924       .  S
O77         H100   0.968       .  S
C78         C127   1.498       .  S
C78          O95   1.275       .  A
C78          O87   1.275       .  A
O79         Ni98   1.913   1_565  S
O79          C85   1.270       .  A
O80         Ni98   1.906       .  S
O80          C82   1.267       .  A
Ni81         O84   1.925   1_545  S
Ni81         O86   1.893       .  S
C82          O92   1.278   1_655  A
O83         Ni99   1.931   1_565  S
O83          C89   1.279       .  A
O84          C89   1.276       .  A
C85         C174   1.489       .  S
O86          C88   1.267       .  A
O87         Ni98   1.934   1_455  S
C88         C165   1.489       .  S
C88          O94   1.284       .  A
H90          O91   0.947       .  S
O91         Ni99   1.940       .  S
O91         Ni93   1.919       .  S
O91         Ni98   1.922   1_455  S
O92         Ni93   1.955       .  S
Ni93         O97   1.909       .  S
Ni93         O95   1.929       .  S
O94         Ni99   1.971       .  S
C96          O97   1.266       .  A
O101       Ni107   1.929   1_545  S
O101        C122   1.271       .  A
O102       Ni125   1.946       .  S
O102        C111   1.276       .  A
O103       Ni107   1.911   1_445  S
O103       Ni125   1.930       .  S
O103       Ni119   1.924       .  S
O103        H126   0.979       .  S
C104        C136   1.488       .  S
C104        O121   1.278       .  A
C104        O113   1.279       .  A
O105       Ni124   1.936       .  S
O105        C111   1.276       .  A
O106       Ni124   1.911       .  S
O106        C108   1.269       .  A
Ni107       O110   1.920   1_655  S
Ni107       O112   1.901       .  S
C108        O118   1.282       .  A
O109       Ni125   1.934   1_565  S
O109        C115   1.278       .  A
O110        C115   1.276       .  A
C111        C192   1.512   1_554  S
O112        C114   1.266       .  A
O113       Ni124   1.933       .  S
C114        C183   1.485       .  S
C114        O120   1.281   1_655  A
H116        O117   0.959       .  S
O117       Ni125   1.921       .  S
O117       Ni119   1.920       .  S
O117       Ni124   1.907       .  S
O118       Ni119   1.971       .  S
Ni119       O123   1.931       .  S
Ni119       O121   1.928       .  S
O120       Ni125   1.961   1_565  S
C122        O123   1.274   1_655  A
C127        C128   1.419       .  A
C127        C132   1.414       .  A
C128        C129   1.412       .  A
C128        H133   1.083   1_455  S
C129        C130   1.399       .  A
C129        C485   1.501   1_455  S
C130        C131   1.403       .  A
C130        H134   1.082       .  S
C131        C132   1.409       .  A
C131        C513   1.491       .  S
C132        H135   1.083       .  S
C136        C137   1.415       .  A
C136        C141   1.414       .  A
C137        C138   1.408   1_554  A
C137        H142   1.083   1_455  S
C138        C139   1.398       .  A
C138        C438   1.478   1_455  S
C139        C140   1.395       .  A
C139        H143   1.085       .  S
C140        C141   1.401   1_556  A
C140        C466   1.479       .  S
C141        H144   1.084       .  S
C145        H146   1.105       .  S
C145        C151   1.546       .  S
C145        C150   1.533       .  S
C145        C149   1.553       .  S
C147        H148   1.109       .  S
C147        C153   1.547       .  S
C147        C152   1.537       .  S
C147        C154   1.528       .  S
C149        C152   1.380       .  D
C149        C429   1.492       .  S
C150        C153   1.382       .  D
C150        C401   1.507       .  S
C151        C154   1.370       .  D
C151        C354   1.499       .  S
C152        C494   1.504       .  S
C153        C373   1.479       .  S
C154        C326   1.472       .  S
C155        H156   1.109       .  S
C155        C161   1.558       .  S
C155        C160   1.568       .  S
C155        C159   1.570       .  S
C157        H158   1.106       .  S
C157        C163   1.570       .  S
C157        C162   1.531       .  S
C157        C164   1.535       .  S
C159        C162   1.388       .  D
C159        C457   1.486       .  S
C160        C163   1.388       .  D
C160        C270   1.558       .  S
C161        C164   1.381       .  D
C161        C205   1.509       .  S
C162        C522   1.520       .  S
C163        C298   1.511       .  S
C164        C242   1.503       .  S
C165        C166   1.418   1_545  A
C165        C170   1.410       .  A
C166        C167   1.416       .  A
C166        H171   1.083       .  S
C167        C168   1.403   1_565  A
C167        C289   1.493       .  S
C168        C169   1.399       .  A
C168        H172   1.085       .  S
C169        C170   1.404       .  A
C169        C382   1.486       .  S
C170        H173   1.084       .  S
C174        C175   1.409       .  A
C174        C179   1.415       .  A
C175        C176   1.408       .  A
C175        H180   1.083       .  S
C176        C177   1.409       .  A
C176        C317   1.479       .  S
C177        C178   1.400       .  A
C177        H181   1.084       .  S
C178        C179   1.398       .  A
C178        C233   1.491       .  S
C179        H182   1.084       .  S
C183        C184   1.412   1_554  A
C183        C188   1.414       .  A
C184        C185   1.407       .  A
C184        H189   1.084   1_556  S
C185        C186   1.401       .  A
C185        C214   1.488       .  S
C186        C187   1.402       .  A
C186        H190   1.084       .  S
C187        C188   1.412   1_556  A
C187        C345   1.491       .  S
C188        H191   1.084       .  S
C192        C193   1.431       .  A
C192        C197   1.417       .  A
C193        C194   1.429       .  A
C193        H198   1.082   1_545  S
C194        C195   1.405       .  A
C194        C261   1.527   1_545  S
C195        C196   1.413       .  A
C195        H199   1.083       .  S
C196        C197   1.400       .  A
C196        C410   1.501       .  S
C197        H200   1.083       .  S
C201        C202   1.404       .  A
C201        C206   1.412       .  A
C201        H211   1.084       .  S
C202        C203   1.411       .  A
C202        C207   1.498       .  S
C203        C204   1.400       .  A
C203        N208   1.428       .  S
C204        C205   1.405       .  A
C204        H209   1.084       .  S
C205        C206   1.421       .  A
C206        N210   1.429       .  S
C207        C212   1.414       .  A
C207        C216   1.400       .  A
N208        O223   1.261       .  A
N208        O224   1.261       .  A
N210        O221   1.261       .  A
N210        O222   1.262       .  A
C212        C213   1.408       .  A
C212        N217   1.427   1_556  S
C213        C214   1.404       .  A
C213        H218   1.084   1_556  S
C214        C215   1.409       .  A
C215        C216   1.401       .  A
C215        N219   1.429       .  S
C216        H220   1.075       .  S
N217        O227   1.262       .  A
N217        O228   1.262       .  A
N219        O225   1.262       .  A
N219        O226   1.262       .  A
C229        C230   1.402       .  A
C229        C234   1.406       .  A
C229        H239   1.084       .  S
C230        C231   1.408       .  A
C230        C235   1.487       .  S
C231        C232   1.403       .  A
C231        N236   1.423       .  S
C232        C233   1.403       .  A
C232        H237   1.084       .  S
C233        C234   1.413       .  A
C234        N238   1.427       .  S
C235        C240   1.410       .  A
C235        C244   1.397       .  A
N236        O251   1.259       .  A
N236        O252   1.261       .  A
N238        O249   1.262       .  A
N238        O250   1.261       .  A
C240        C241   1.409       .  A
C240        N245   1.428       .  S
C241        C242   1.407       .  A
C241        H246   1.084       .  S
C242        C243   1.420       .  A
C243        C244   1.400       .  A
C243        N247   1.429       .  S
C244        H248   1.085       .  S
N245        O255   1.262       .  A
N245        O256   1.262       .  A
N247        O253   1.261       .  A
N247        O254   1.261       .  A
C257        C258   1.422       .  A
C257        C262   1.431       .  A
C257        H267   1.082       .  S
C258        C259   1.421       .  A
C258        C263   1.554       .  S
C259        C260   1.420       .  A
C259        N264   1.423   1_556  S
C260        C261   1.403       .  A
C260        H265   1.084   1_556  S
C261        C262   1.424       .  A
C262        N266   1.434       .  S
C263        C268   1.432       .  A
C263        C272   1.419       .  A
N264        O279   1.261       .  A
N264        O280   1.261       .  A
N266        O277   1.262       .  A
N266        O278   1.262   1_565  A
C268        C269   1.436       .  A
C268        N273   1.444       .  S
C269        C270   1.416       .  A
C269        H274   1.083       .  S
C270        C271   1.422       .  A
C271        C272   1.430       .  A
C271        N275   1.428       .  S
C272        H276   1.083       .  S
N273        O283   1.263       .  A
N273        O284   1.262       .  A
N275        O281   1.261       .  A
N275        O282   1.262       .  A
C285        C286   1.397       .  A
C285        C290   1.397       .  A
C285        H295   1.082       .  S
C286        C287   1.418       .  A
C286        C291   1.491       .  S
C287        C288   1.410       .  A
C287        N292   1.430       .  S
C288        C289   1.404       .  A
C288        H293   1.084       .  S
C289        C290   1.414       .  A
C290        N294   1.426       .  S
C291        C296   1.415       .  A
C291        C300   1.395       .  A
N292        O307   1.262       .  A
N292        O308   1.262       .  A
N294        O305   1.261       .  A
N294        O306   1.261       .  A
C296        C297   1.406       .  A
C296        N301   1.429       .  S
C297        C298   1.408       .  A
C297        H302   1.083       .  S
C298        C299   1.422       .  A
C299        C300   1.400       .  A
C299        N303   1.432       .  S
C300        H304   1.084       .  S
N301        O311   1.263       .  A
N301        O312   1.261       .  A
N303        O309   1.262       .  A
N303        O310   1.260       .  A
C313        C314   1.398       .  A
C313        C318   1.397       .  A
C313        H323   1.084       .  S
C314        C315   1.410       .  A
C314        C319   1.477       .  S
C315        C316   1.403       .  A
C315        N320   1.430       .  S
C316        C317   1.405       .  A
C316        H321   1.084       .  S
C317        C318   1.410       .  A
C318        N322   1.427       .  S
C319        C324   1.410       .  A
C319        C328   1.403       .  A
N320        O335   1.262       .  A
N320        O336   1.262       .  A
N322        O333   1.261       .  A
N322        O334   1.262       .  A
C324        C325   1.391       .  A
C324        N329   1.429       .  S
C325        C326   1.392       .  A
C325        H330   1.079       .  S
C326        C327   1.410       .  A
C327        C328   1.401       .  A
C327        N331   1.428       .  S
C328        H332   1.084       .  S
N329        O339   1.262       .  A
N329        O340   1.262       .  A
N331        O337   1.262       .  A
N331        O338   1.262       .  A
C341        C342   1.407       .  A
C341        C346   1.404       .  A
C341        H351   1.084       .  S
C342        C343   1.418       .  A
C342        C347   1.502       .  S
C343        C344   1.408       .  A
C343        N348   1.426       .  S
C344        C345   1.400       .  A
C344        H349   1.084       .  S
C345        C346   1.413       .  A
C346        N350   1.430   1_556  S
C347        C352   1.416       .  A
C347        C356   1.405       .  A
N348        O363   1.261       .  A
N348        O364   1.261   1_655  A
N350        O361   1.262       .  A
N350        O362   1.262       .  A
C352        C353   1.413       .  A
C352        N357   1.427       .  S
C353        C354   1.404       .  A
C353        H358   1.083       .  S
C354        C355   1.413       .  A
C355        C356   1.403       .  A
C355        N359   1.430       .  S
C356        H360   1.084       .  S
N357        O367   1.262       .  A
N357        O368   1.261       .  A
N359        O365   1.262       .  A
N359        O366   1.262       .  A
C369        C370   1.404       .  A
C369        C374   1.403       .  A
C369        H379   1.081       .  S
C370        C371   1.420       .  A
C370        C375   1.491       .  S
C371        C372   1.393       .  A
C371        N376   1.430       .  S
C372        C373   1.394       .  A
C372        H377   1.083       .  S
C373        C374   1.411       .  A
C374        N378   1.428       .  S
C375        C380   1.418       .  A
C375        C384   1.398       .  A
N376        O391   1.262       .  A
N376        O392   1.260       .  A
N378        O389   1.262       .  A
N378        O390   1.262       .  A
C380        C381   1.403       .  A
C380        N385   1.428       .  S
C381        C382   1.401       .  A
C381        H386   1.084       .  S
C382        C383   1.413       .  A
C383        C384   1.395       .  A
C383        N387   1.427       .  S
C384        H388   1.082       .  S
N385        O395   1.262       .  A
N385        O396   1.260       .  A
N387        O393   1.262       .  A
N387        O394   1.262       .  A
C397        C398   1.395       .  A
C397        C402   1.403       .  A
C397        H407   1.084       .  S
C398        C399   1.403       .  A
C398        C403   1.481       .  S
C399        C400   1.404       .  A
C399        N404   1.427       .  S
C400        C401   1.409       .  A
C400        H405   1.080       .  S
C401        C402   1.423       .  A
C402        N406   1.428       .  S
C403        C408   1.404       .  A
C403        C412   1.401       .  A
N404        O419   1.262       .  A
N404        O420   1.259       .  A
N406        O417   1.262       .  A
N406        O418   1.260       .  A
C408        C409   1.391       .  A
C408        N413   1.424       .  S
C409        C410   1.402       .  A
C409        H414   1.083       .  S
C410        C411   1.424       .  A
C411        C412   1.410       .  A
C411        N415   1.428   1_556  S
C412        H416   1.084       .  S
N413        O423   1.261       .  A
N413        O424   1.260       .  A
N415        O421   1.262       .  A
N415        O422   1.262       .  A
C425        C426   1.402       .  A
C425        C430   1.400       .  A
C425        H435   1.084       .  S
C426        C427   1.413       .  A
C426        C431   1.486       .  S
C427        C428   1.400       .  A
C427        N432   1.428       .  S
C428        C429   1.400       .  A
C428        H433   1.084       .  S
C429        C430   1.420       .  A
C430        N434   1.432       .  S
C431        C436   1.414       .  A
C431        C440   1.402       .  A
N432        O447   1.262       .  A
N432        O448   1.262       .  A
N434        O445   1.261       .  A
N434        O446   1.261       .  A
C436        C437   1.405       .  A
C436        N441   1.428   1_556  S
C437        C438   1.401       .  A
C437        H442   1.084   1_556  S
C438        C439   1.411       .  A
C439        C440   1.395       .  A
C439        N443   1.429       .  S
C440        H444   1.084       .  S
N441        O451   1.262       .  A
N441        O452   1.262       .  A
N443        O449   1.262       .  A
N443        O450   1.262   1_655  A
C453        C454   1.410       .  A
C453        C458   1.413       .  A
C453        H463   1.084       .  S
C454        C455   1.410       .  A
C454        C459   1.490       .  S
C455        C456   1.391       .  A
C455        N460   1.426       .  S
C456        C457   1.393       .  A
C456        H461   1.084       .  S
C457        C458   1.417       .  A
C458        N462   1.431       .  S
C459        C464   1.410       .  A
C459        C468   1.408       .  A
N460        O475   1.262       .  A
N460        O476   1.262       .  A
N462        O473   1.262       .  A
N462        O474   1.261       .  A
C464        C465   1.397       .  A
C464        N469   1.425       .  S
C465        C466   1.399       .  A
C465        H470   1.085       .  S
C466        C467   1.409       .  A
C467        C468   1.407       .  A
C467        N471   1.429   1_556  S
C468        H472   1.084       .  S
N469        O479   1.262       .  A
N469        O480   1.262       .  A
N471        O477   1.262       .  A
N471        O478   1.262       .  A
C481        C482   1.399       .  A
C481        C486   1.404       .  A
C481        H491   1.084       .  S
C482        C483   1.410       .  A
C482        C487   1.488       .  S
C483        C484   1.406       .  A
C483        N488   1.428       .  S
C484        C485   1.406       .  A
C484        H489   1.083       .  S
C485        C486   1.421       .  A
C486        N490   1.430   1_655  S
C487        C492   1.407       .  A
C487        C496   1.404       .  A
N488        O503   1.262       .  A
N488        O504   1.262       .  A
N490        O501   1.262       .  A
N490        O502   1.262   1_455  A
C492        C493   1.398       .  A
C492        N497   1.428       .  S
C493        C494   1.406       .  A
C493        H498   1.083       .  S
C494        C495   1.418       .  A
C495        C496   1.410       .  A
C495        N499   1.429       .  S
C496        H500   1.084       .  S
N497        O507   1.262       .  A
N497        O508   1.262       .  A
N499        O505   1.262       .  A
N499        O506   1.261       .  A
C509        C510   1.403       .  A
C509        C514   1.404       .  A
C509        H519   1.084       .  S
C510        C511   1.412       .  A
C510        C515   1.492       .  S
C511        C512   1.404       .  A
C511        N516   1.428       .  S
C512        C513   1.407       .  A
C512        H517   1.084       .  S
C513        C514   1.411       .  A
C514        N518   1.428       .  S
C515        C520   1.406       .  A
C515        C524   1.398       .  A
N516        O531   1.262       .  A
N516        O532   1.262       .  A
N518        O529   1.262       .  A
N518        O530   1.262       .  A
C520        C521   1.402       .  A
C520        N525   1.424       .  S
C521        C522   1.403       .  A
C521        H526   1.082       .  S
C522        C523   1.433       .  A
C523        C524   1.415       .  A
C523        N527   1.430       .  S
C524        H528   1.084       .  S
N525        O535   1.259       .  A
N525        O536   1.261       .  A
N527        O533   1.262       .  A
N527        O534   1.262       .  A
C537        C538   1.402       .  A
C537        C542   1.402       .  A
C537        H547   1.084       .  S
C538        C539   1.409       .  A
C538        C543   1.487       .  S
C539        C540   1.406       .  A
C539        N544   1.427       .  S
C540        C541   1.406       .  A
C540        H545   1.084       .  S
C541        C542   1.413       .  A
C542        N546   1.429       .  S
C543        C548   1.410       .  A
C543        C552   1.404       .  A
N544        O559   1.262       .  A
N544        O560   1.262       .  A
N546        O557   1.262       .  A
N546        O558   1.262       .  A
C548        C549   1.403       .  A
C548        N553   1.428       .  S
C549        C550   1.403       .  A
C549        H554   1.084       .  S
C550        C551   1.412       .  A
C551        C552   1.406       .  A
C551        N555   1.429       .  S
C552        H556   1.084       .  S
N553        O563   1.262       .  A
N553        O564   1.262       .  A
N555        O561   1.262       .  A
N555        O562   1.262       .  A
C565        C566   1.401       .  A
C565        C570   1.406       .  A
C565        H575   1.084       .  S
C566        C567   1.407       .  A
C566        C571   1.481       .  S
C567        C568   1.402       .  A
C567        N572   1.429       .  S
C568        C569   1.406       .  A
C568        H573   1.084       .  S
C569        C570   1.416       .  A
C570        N574   1.428       .  S
C571        C576   1.412       .  A
C571        C580   1.396       .  A
N572        O587   1.262       .  A
N572        O588   1.261       .  A
N574        O585   1.262       .  A
N574        O586   1.262       .  A
C576        C577   1.408       .  A
C576        N581   1.428       .  S
C577        C578   1.405       .  A
C577        H582   1.083       .  S
C578        C579   1.414       .  A
C579        C580   1.395       .  A
C579        N583   1.426       .  S
C580        H584   1.085       .  S
N581        O591   1.262       .  A
N581        O592   1.262       .  A
N583        O589   1.262       .  A
N583        O590   1.262       .  A
C593        C594   1.402       .  A
C593        C598   1.405       .  A
C593        H603   1.084       .  S
C594        C595   1.413       .  A
C594        C599   1.489       .  S
C595        C596   1.403       .  A
C595        N600   1.428       .  S
C596        C597   1.402       .  A
C596        H601   1.084       .  S
C597        C598   1.414       .  A
C598        N602   1.428       .  S
C599        C604   1.410       .  A
C599        C608   1.406       .  A
N600        O615   1.262       .  A
N600        O616   1.261       .  A
N602        O613   1.262   1_565  A
N602        O614   1.262       .  A
C604        C605   1.398       .  A
C604        N609   1.428       .  S
C605        C606   1.402       .  A
C605        H610   1.084       .  S
C606        C607   1.411       .  A
C607        C608   1.410       .  A
C607        N611   1.428       .  S
C608        H612   1.083       .  S
N609        O619   1.262       .  A
N609        O620   1.261       .  A
N611        O617   1.261       .  A
N611        O618   1.259       .  A
C621        C622   1.401       .  A
C621        C626   1.400       .  A
C621        H631   1.084       .  S
C622        C623   1.413       .  A
C622        C627   1.488       .  S
C623        C624   1.403       .  A
C623        N628   1.427       .  S
C624        C625   1.400       .  A
C624        H629   1.083       .  S
C625        C626   1.417       .  A
C626        N630   1.429       .  S
C627        C632   1.412       .  A
C627        C636   1.401       .  A
N628        O643   1.262       .  A
N628        O644   1.262       .  A
N630        O641   1.261       .  A
N630        O642   1.262       .  A
C632        C633   1.407       .  A
C632        N637   1.428       .  S
C633        C634   1.405       .  A
C633        H638   1.084       .  S
C634        C635   1.411       .  A
C635        C636   1.398       .  A
C635        N639   1.429       .  S
C636        H640   1.081       .  S
N637        O647   1.262       .  A
N637        O648   1.262       .  A
N639        O645   1.262       .  A
N639        O646   1.261   1_565  A
C649        C650   1.409       .  A
C649        C654   1.408       .  A
C649        H659   1.083       .  S
C650        C651   1.414       .  A
C650        C655   1.494       .  S
C651        C652   1.389       .  A
C651        N656   1.431       .  S
C652        C653   1.405       .  A
C652        H657   1.084       .  S
C653        C654   1.415       .  A
C654        N658   1.427       .  S
C655        C660   1.414       .  A
C655        C664   1.400       .  A
N656        O671   1.262       .  A
N656        O672   1.262       .  A
N658        O669   1.262       .  A
N658        O670   1.262       .  A
C660        C661   1.403       .  A
C660        N665   1.430       .  S
C661        C662   1.409       .  A
C661        H666   1.082       .  S
C662        C663   1.419       .  A
C663        C664   1.398       .  A
C663        N667   1.429       .  S
C664        H668   1.083       .  S
N665        O675   1.262       .  A
N665        O676   1.262       .  A
N667        O673   1.262       .  A
N667        O674   1.261       .  A
C677        C678   1.401       .  A
C677        C682   1.406       .  A
C677        H687   1.083       .  S
C678        C679   1.411       .  A
C678        C683   1.498       .  S
C679        C680   1.411       .  A
C679        N684   1.432       .  S
C680        C681   1.410       .  A
C680        H685   1.084       .  S
C681        C682   1.421       .  A
C682        N686   1.429       .  S
C683        C688   1.417       .  A
C683        C692   1.405       .  A
N684        O699   1.262       .  A
N684        O700   1.263       .  A
N686        O697   1.262       .  A
N686        O698   1.262       .  A
C688        C689   1.407       .  A
C688        N693   1.429       .  S
C689        C690   1.402       .  A
C689        H694   1.084       .  S
C690        C691   1.406       .  A
C691        C692   1.397       .  A
C691        N695   1.429       .  S
C692        H696   1.083       .  S
N693        O703   1.262       .  A
N693        O704   1.262       .  A
N695        O701   1.260   1_655  A
N695        O702   1.261       .  A
C705        C706   1.400       .  A
C705        C710   1.407       .  A
C705        H715   1.084       .  S
C706        C707   1.408       .  A
C706        C711   1.486       .  S
C707        C708   1.401       .  A
C707        N712   1.425       .  S
C708        C709   1.398       .  A
C708        H713   1.081       .  S
C709        C710   1.425       .  A
C710        N714   1.437       .  S
C711        C716   1.410       .  A
C711        C720   1.403       .  A
N712        O727   1.261       .  A
N712        O728   1.262       .  A
N714        O725   1.264       .  A
N714        O726   1.259       .  A
C716        C717   1.405       .  A
C716        N721   1.428       .  S
C717        C718   1.405       .  A
C717        H722   1.084       .  S
C718        C719   1.411       .  A
C719        C720   1.403       .  A
C719        N723   1.429       .  S
C720        H724   1.084       .  S
N721        O731   1.262       .  A
N721        O732   1.262       .  A
N723        O729   1.262       .  A
N723        O730   1.262   1_655  A
C733        C734   1.384       .  A
C733        C738   1.393       .  A
C733        H743   1.073       .  S
C734        C735   1.407       .  A
C734        C739   1.478       .  S
C735        C736   1.403       .  A
C735        N740   1.428       .  S
C736        C737   1.411       .  A
C736        H741   1.081       .  S
C737        C738   1.423       .  A
C738        N742   1.432       .  S
C739        C744   1.415       .  A
C739        C748   1.398       .  A
N740        O755   1.263       .  A
N740        O756   1.260       .  A
N742        O753   1.258       .  A
N742        O754   1.260       .  A
C744        C745   1.396       .  A
C744        N749   1.432       .  S
C745        C746   1.403       .  A
C745        H750   1.084       .  S
C746        C747   1.415       .  A
C747        C748   1.398       .  A
C747        N751   1.427       .  S
C748        H752   1.082       .  S
N749        O759   1.262       .  A
N749        O760   1.262       .  A
N751        O757   1.262       .  A
N751        O758   1.262       .  A
C761        C762   1.406       .  A
C761        C766   1.410       .  A
C761        H771   1.082       .  S
C762        C763   1.414       .  A
C762        C767   1.503       .  S
C763        C764   1.404       .  A
C763        N768   1.430       .  S
C764        C765   1.406       .  A
C764        H769   1.081       .  S
C765        C766   1.415       .  A
C766        N770   1.426       .  S
C767        C772   1.418       .  A
C767        C776   1.408       .  A
N768        O783   1.262       .  A
N768        O784   1.262       .  A
N770        O781   1.262       .  A
N770        O782   1.260       .  A
C772        C773   1.407       .  A
C772        N777   1.428       .  S
C773        C774   1.403       .  A
C773        H778   1.084       .  S
C774        C775   1.408       .  A
C775        C776   1.402       .  A
C775        N779   1.428       .  S
C776        H780   1.083       .  S
N777        O787   1.262       .  A
N777        O788   1.261       .  A
N779        O785   1.261       .  A
N779        O786   1.262       .  A
C789        C790   1.400       .  A
C789        C794   1.410       .  A
C789        H799   1.084       .  S
C790        C791   1.406       .  A
C790        C795   1.484       .  S
C791        C792   1.397       .  A
C791        N796   1.427       .  S
C792        C793   1.404       .  A
C792        H797   1.084       .  S
C793        C794   1.424       .  A
C794        N798   1.429       .  S
C795        C800   1.409       .  A
C795        C804   1.404       .  A
N796        O811   1.262       .  A
N796        O812   1.261       .  A
N798        O809   1.261       .  A
N798        O810   1.263       .  A
C800        C801   1.399       .  A
C800        N805   1.428       .  S
C801        C802   1.402       .  A
C801        H806   1.084       .  S
C802        C803   1.412       .  A
C803        C804   1.406       .  A
C803        N807   1.428       .  S
C804        H808   1.084       .  S
N805        O815   1.262       .  A
N805        O816   1.262       .  A
N807        O813   1.262       .  A
N807        O814   1.261       .  A
C817        C818   1.410       .  A
C817        C822   1.416       .  A
C817        H827   1.083       .  S
C818        C819   1.442       .  A
C818        C823   1.543       .  S
C819        C820   1.417       .  A
C819        N824   1.428       .  S
C820        C821   1.396       .  A
C820        H825   1.085       .  S
C821        C822   1.408       .  A
C822        N826   1.425       .  S
C823        C828   1.435       .  A
C823        C832   1.409       .  A
N824        O839   1.261       .  A
N824        O840   1.262       .  A
N826        O837   1.261       .  A
N826        O838   1.261       .  A
C828        C829   1.442       .  A
C828        N833   1.441       .  S
C829        C830   1.418       .  A
C829        H834   1.083       .  S
C830        C831   1.420       .  A
C831        C832   1.420       .  A
C831        N835   1.427       .  S
C832        H836   1.084       .  S
N833        O843   1.263       .  A
N833        O844   1.262       .  A
N835        O841   1.262       .  A
N835        O842   1.261       .  A
C845        C846   1.405       .  A
C845        C850   1.403       .  A
C845        H855   1.084       .  S
C846        C847   1.414       .  A
C846        C851   1.500       .  S
C847        C848   1.409       .  A
C847        N852   1.428       .  S
C848        C849   1.405       .  A
C848        H853   1.083       .  S
C849        C850   1.417       .  A
C850        N854   1.431       .  S
C851        C856   1.415       .  A
C851        C860   1.406       .  A
N852        O867   1.262       .  A
N852        O868   1.262       .  A
N854        O865   1.260       .  A
N854        O866   1.261       .  A
C856        C857   1.410       .  A
C856        N861   1.428       .  S
C857        C858   1.406       .  A
C857        H862   1.084       .  S
C858        C859   1.413       .  A
C859        C860   1.405       .  A
C859        N863   1.428       .  S
C860        H864   1.083       .  S
N861        O871   1.262       .  A
N861        O872   1.262       .  A
N863        O869   1.262       .  A
N863        O870   1.262       .  A
