geometry optimzed in LAMMPS
_audit_creation_date              2020-11-30 
_audit_creation_method            'lammps2cif' 
_symmetry_space_group_name_H-M    'P1' 
_symmetry_Int_Tables_number       1 
_symmetry_cell_setting            triclinic 
loop_ 
_symmetry_equiv_pos_as_xyz 
  x,y,z 
_cell_length_a                    29.33880115 
_cell_length_b                    29.39632978936366 
_cell_length_c                    32.19511465094071 
_cell_angle_alpha                 91.6862140601685 
_cell_angle_beta                  93.47663015029048 
_cell_angle_gamma                 108.8772764829337 
loop_ 
_atom_site_label 
_atom_site_type_symbol 
_atom_site_fract_x 
_atom_site_fract_y 
_atom_site_fract_z 
_atom_site_charge 
N1          N  0.10522423  0.08153934  0.15656730     0.00100
C2          C  0.11017175  0.07786824  0.11476290     0.02700
C3          C  0.12472632  0.12263210  0.09846970    -0.20200
C4          C  0.12167341  0.15393608  0.12925713    -0.20400
C5          C  0.10614941  0.12733135  0.16312352     0.02600
H6          H  0.12609340  0.13018493  0.06575038     0.16400
H7          H  0.12077389  0.18956841  0.12464218     0.16400
C8          C  0.15233609  0.02114219  0.16931174     0.49000
H9          H  0.15393553  0.02081880  0.13517996     0.00000
C10         C  0.15560442  0.02529460  0.24929439     0.49100
H11         H  0.15954982  0.02787020  0.28357518     0.00000
C12         C  0.20361563  0.03635465  0.19088064    -0.13700
C13         C  0.12720065  0.05632188  0.18650137    -0.13400
C14         C  0.12433776  0.30530043  0.18592950    -0.13800
C15         C  0.20553708  0.03932370  0.23194263    -0.13800
C16         C  0.12947937  0.05896549  0.23063602    -0.13300
C17         C  0.12620316  0.30770044  0.22989361    -0.13700
C18         C  0.03358200  0.15757294  0.24700290     0.49000
H19         H  0.04129759  0.16387321  0.28084997     0.00000
C20         C  0.02530809  0.14879368  0.16714075     0.49100
H21         H  0.02510842  0.14700580  0.13298073     0.00000
C22         C  0.03503495  0.20385906  0.22552654    -0.13700
C23         C  0.07338791  0.14196197  0.22794001    -0.13400
C24         C  0.98463646  0.11900370  0.23137351    -0.13800
C25         C  0.03182917  0.19985895  0.18410258    -0.13800
C26         C  0.06910427  0.13748519  0.18661147    -0.13300
C27         C  0.98037846  0.11392490  0.18710863    -0.13700
N28         N  0.27959466  0.07558278  0.15971339     0.00100
C29         C  0.29209247  0.06239690  0.12255183     0.02700
C30         C  0.27547590  0.01321153  0.11612156    -0.20200
C31         C  0.24565137  0.99573997  0.14685813    -0.20400
C32         C  0.24638482  0.03525002  0.17093450     0.02600
H33         H  0.27836839  0.99291964  0.08889790     0.16400
H34         H  0.22133690  0.95934904  0.14834939     0.16400
N35         N  0.09473807  0.26654290  0.15579292     0.00100
C36         C  0.09926159  0.26871195  0.11362917     0.02700
C37         C  0.05534944  0.25077264  0.09140456    -0.20200
C38         C  0.02186464  0.23584017  0.11983767    -0.20400
C39         C  0.04686077  0.24183679  0.15836798     0.02600
H40         H  0.04911785  0.24417584  0.05797862     0.16400
H41         H  0.98474575  0.21347978  0.11264357     0.16400
N42         N  0.28777008  0.08932365  0.26256769     0.00100
C43         C  0.30370924  0.08942131  0.30349698     0.02700
C44         C  0.28411093  0.04511830  0.31963672    -0.20200
C45         C  0.25177240  0.01743974  0.28948797    -0.20400
C46         C  0.25147776  0.04632675  0.25681102     0.02600
H47         H  0.28714275  0.03632956  0.35183902     0.16400
H48         H  0.22667947  0.98200176  0.29269550     0.16400
N49         N  0.09725470  0.27266556  0.25708992     0.00100
C50         C  0.10141759  0.27985710  0.29933309     0.02700
C51         C  0.05725178  0.26639454  0.31471372    -0.20200
C52         C  0.02363687  0.25023529  0.28238372    -0.20400
C53         C  0.04940132  0.24991102  0.24819828     0.02600
H54         H  0.05100695  0.26282151  0.34650398     0.16400
H55         H  0.98617169  0.22940919  0.28546139     0.16400
N56         N  0.11307542  0.08963940  0.25936034     0.00100
C57         C  0.12364203  0.09206557  0.30151836     0.02700
C58         C  0.14083700  0.13899913  0.31724083    -0.20200
C59         C  0.13526952  0.16629973  0.28521549    -0.20400
C60         C  0.11433517  0.13488258  0.25161244     0.02600
H61         H  0.14709741  0.15117189  0.34981085     0.16400
H62         H  0.13645825  0.20318708  0.28849424     0.16400
O63         O  0.06633669  0.22316790  0.49163595    -0.77300
O64         O  0.24349504  0.27264805  0.38146676    -0.62000
O65         O  0.34376836  0.28053628  0.46518750    -1.08600
C66         C  0.21658301  0.17362545  0.53432080     1.09600
O67         O  0.19208145  0.28080997  0.42679367    -0.75200
O68         O  0.22028155  0.29050667  0.51042972    -0.62800
Ni69       Ni  0.06872431  0.26991639  0.45071989     1.34900
C70         C  0.25933566  0.30494803  0.53373945     0.88300
O71         O  0.33840756  0.32309354  0.38908102    -0.75700
O72         O  0.07776799  0.31721109  0.40927813    -0.86000
C73         C  0.20444216  0.27952344  0.38956346     0.87900
O74         O  0.04052516  0.21694474  0.41092220    -0.64200
O75         O  0.18800409  0.19083421  0.51352901    -0.83500
C76         C  0.33405299  0.20286470  0.38890631     0.88700
C77         C  0.05080476  0.33495489  0.38717549     1.10300
H78         H  0.24580638  0.19899558  0.44260962     0.42100
O79         O  0.25414015  0.23064505  0.45624272    -1.06200
O80         O  0.29281820  0.28624374  0.53209399    -0.62800
Ni81       Ni  0.30331055  0.23474828  0.49915232     1.26300
O82         O  0.30261936  0.22392585  0.38992327    -0.63000
O83         O  0.26191611  0.18744499  0.53148086    -0.75300
C84         C  0.05811341  0.22782931  0.52932436     0.88100
O85         O  0.02203711  0.23931479  0.53924274    -0.62500
Ni86       Ni  0.19406596  0.23696313  0.47049813     1.27400
Ni87       Ni  0.29493865  0.27684677  0.42211583     1.26100
H88         H  0.01968476  0.31214895  0.47902090     0.42600
O89         O  0.28893241  0.13650303  0.99084609    -0.77300
O90         O  0.29608548  0.30838364  0.88162816    -0.62000
O91         O  0.32415037  0.23162208  0.96609037    -1.08600
C92         C  0.20774547  0.27514330  0.03773980     1.09600
O93         O  0.29612837  0.03452638  0.92587081    -0.75200
O94         O  0.32389518  0.02012041  0.00598156    -0.62800
Ni95       Ni  0.33252429  0.17118834  0.95198181     1.34900
C96         C  0.00459044  0.32810120  0.03193395     0.88300
O97         O  0.02855419  0.26489782  0.88995886    -0.75700
O98         O  0.04536966  0.20008636  0.91238567    -0.86000
C99         C  0.29595846  0.01747236  0.88901260     0.87900
O100        O  0.28047059  0.14916525  0.90989179    -0.64200
O101        O  0.22628873  0.31521296  0.02108235    -0.83500
C102        C  0.25646069  0.17017301  0.88829682     0.88700
C103        C  0.05250221  0.23577321  0.88925772     1.10300
H104        H  0.22940499  0.25812807  0.94176376     0.42100
O105        O  0.26063716  0.27396976  0.95625519    -1.06200
O106        O  0.31672042  0.28331777  0.03430942    -0.62800
Ni107      Ni  0.27164993  0.23332143  0.99829640     1.26300
O108        O  0.26434013  0.21539404  0.89092973    -0.63000
O109        O  0.21890827  0.23756655  0.02925873    -0.75300
C110        C  0.28773748  0.15009607  0.02824278     0.88100
O111        O  0.28389269  0.19073106  0.03780040    -0.62500
Ni112      Ni  0.26310665  0.33780490  0.97347714     1.27400
Ni113      Ni  0.31070548  0.26921159  0.92269531     1.26100
H114        H  0.02093715  0.25090352  0.98069882     0.42600
N115        N  0.29066705  0.09982781  0.65509348     0.00100
C116        C  0.28301636  0.08967794  0.61275510     0.02700
C117        C  0.30021781  0.13022606  0.59098712    -0.20200
C118        C  0.31877333  0.16749550  0.61967837    -0.20400
C119        C  0.31673317  0.14779656  0.65817645     0.02600
H120        H  0.30357004  0.13155117  0.55774196     0.16400
H121        H  0.00784424  0.20324033  0.61278946     0.16400
N122        N  0.29997327  0.11166293  0.75685927     0.00100
C123        C  0.30022596  0.11315210  0.79920245     0.02700
C124        C  0.98348981  0.15924748  0.81524016    -0.20200
C125        C  0.99361398  0.18845635  0.78297582    -0.20400
C126        C  0.98812225  0.15817038  0.74828625     0.02600
H127        H  0.99285477  0.16962836  0.84718902     0.16400
H128        H  0.01483851  0.22631132  0.78605334     0.16400
C129        C  0.20526192  0.04330326  0.66915831     0.49000
H130        H  0.20018735  0.03695885  0.63505164     0.00000
C131        C  0.21336984  0.05119082  0.74911595     0.49100
H132        H  0.21601974  0.05187051  0.78331658     0.00000
C133        C  0.25692827  0.07399740  0.68551019    -0.13700
C134        C  0.17253228  0.07055965  0.68681416    -0.13400
C135        C  0.19356829  0.99508554  0.69045644    -0.13800
C136        C  0.26123671  0.07837001  0.72957518    -0.13800
C137        C  0.17638820  0.07422524  0.73093897    -0.13300
C138        C  0.19723925  0.99900449  0.73151857    -0.13700
C139        C  0.07758693  0.16953809  0.66743974     0.49000
H140        H  0.07420378  0.16407812  0.63341770     0.00000
C141        C  0.08057891  0.17381911  0.74726848     0.49100
H142        H  0.07975621  0.17189096  0.78133539     0.00000
C143        C  0.11524933  0.21762059  0.68692073    -0.13700
C144        C  0.02892959  0.16554387  0.68430980    -0.13400
C145        C  0.09175049  0.12892423  0.68718957    -0.13800
C146        C  0.11623173  0.22039136  0.73109448    -0.13800
C147        C  0.03093462  0.16884251  0.72570256    -0.13300
C148        C  0.09385344  0.13125331  0.72854831    -0.13700
N149        N  0.14989283  0.24735950  0.65944122     0.00100
C150        C  0.15737516  0.22950814  0.62209262     0.02700
C151        C  0.20531370  0.24702903  0.61440278    -0.20200
C152        C  0.22736908  0.28124622  0.64507130    -0.20400
C153        C  0.19173024  0.28295835  0.67008479     0.02600
H154        H  0.22099419  0.24202220  0.58624815     0.16000
H155        H  0.26353287  0.97337738  0.64572703     0.16400
N156        N  0.14325268  0.08885855  0.65723684     0.00100
C157        C  0.14170155  0.07964126  0.61522786     0.02700
C158        C  0.09474434  0.06336396  0.59822614    -0.20200
C159        C  0.06710211  0.06898849  0.62915853    -0.20400
C160        C  0.09819860  0.08839273  0.66369109     0.02600
H161        H  0.08302736  0.05854147  0.56535864     0.16400
H162        H  0.03054476  0.06894366  0.62434291     0.16400
N163        N  0.14952310  0.09385563  0.76009931     0.00100
C164        C  0.15254887  0.08771393  0.80202348     0.02700
C165        C  0.10777975  0.07445265  0.81760197    -0.20200
C166        C  0.07659346  0.07773195  0.78578865    -0.20400
C167        C  0.10358576  0.09345479  0.75240241     0.02600
H168        H  0.10013735  0.07214137  0.85011293     0.16400
H169        H  0.04057422  0.07822018  0.78908231     0.16400
N170        N  0.14847817  0.25685830  0.76198617     0.00100
C171        C  0.15247122  0.24813708  0.80332481     0.02700
C172        C  0.19923034  0.26733377  0.81991060    -0.20200
C173        C  0.22473428  0.29304551  0.78953832    -0.20400
C174        C  0.19215738  0.28965183  0.75614513     0.02600
H175        H  0.21140042  0.26855188  0.85237379     0.16400
H176        H  0.26148793  0.98358661  0.79299486     0.16400
C177        C  0.22110582  0.14120204  0.85680407    -0.09700
C178        C  0.19284072  0.11599623  0.82992660    -0.11200
C179        C  0.11436849  0.24235882  0.83125638    -0.09700
C180        C  0.08673067  0.24058108  0.85802702    -0.11200
C181        C  0.29646204  0.04768370  0.85451880    -0.09700
C182        C  0.29613312  0.07397376  0.82638984    -0.11200
C183        C  0.17668973  0.10989345  0.58936603    -0.09700
C184        C  0.19672105  0.13807156  0.56422649    -0.11200
C185        C  0.27087679  0.04311732  0.59046067    -0.09700
C186        C  0.26518142  0.34337677  0.56500494    -0.11200
C187        C  0.12154978  0.22073361  0.58768185    -0.09700
C188        C  0.09113568  0.22071650  0.56091754    -0.11200
C189        C  0.09626950  0.05678638  0.32879776    -0.09700
C190        C  0.07371556  0.03304901  0.35545902    -0.11200
C191        C  0.14398140  0.28634027  0.32720992    -0.09700
C192        C  0.17308324  0.28586813  0.35544706    -0.11200
C193        C  0.32579568  0.16353959  0.35854567    -0.09700
C194        C  0.31774256  0.13120685  0.33221554    -0.11200
C195        C  0.14284925  0.27407703  0.09235105    -0.09700
C196        C  0.17321317  0.27360580  0.06846878    -0.11200
C197        C  0.29021416  0.11805249  0.06022436    -0.09700
C198        C  0.29326395  0.09179867  0.08745731    -0.11200
C199        C  0.04479574  0.01792111  0.06185195    -0.09700
C200        C  0.07644516  0.04024470  0.08773259    -0.11200
N201        N  0.10522890  0.41487472  0.15656459     0.00100
C202        C  0.11017778  0.41120465  0.11476041     0.02700
C203        C  0.12473017  0.45596877  0.09846757    -0.20200
C204        C  0.12167412  0.48727130  0.12925495    -0.20400
C205        C  0.10615126  0.46066586  0.16312112     0.02600
H206        H  0.12609724  0.46352197  0.06574833     0.16400
H207        H  0.12077147  0.52290236  0.12464007     0.16400
C208        C  0.15233843  0.35447571  0.16930898     0.49000
H209        H  0.15393822  0.35415275  0.13517727     0.00000
C210        C  0.15560637  0.35862768  0.24929150     0.49100
H211        H  0.15955187  0.36120345  0.28357225     0.00000
C212        C  0.20361761  0.36968633  0.19087782    -0.13700
C213        C  0.12720420  0.38965640  0.18649872    -0.13400
C214        C  0.12433464  0.63863273  0.18593285    -0.13800
C215        C  0.20553878  0.37265480  0.23193974    -0.13800
C216        C  0.12948272  0.39229968  0.23063329    -0.13300
C217        C  0.12619916  0.64103173  0.22989696    -0.13700
C218        C  0.03358220  0.49090213  0.24700184     0.49000
H219        H  0.04129741  0.49720118  0.28084909     0.00000
C220        C  0.02530831  0.48212536  0.16713959     0.49100
H221        H  0.02510825  0.48033873  0.13297954     0.00000
C222        C  0.03503324  0.53718839  0.22552676    -0.13700
C223        C  0.07338924  0.47529384  0.22793805    -0.13400
C224        C  0.98463762  0.45233207  0.23137188    -0.13800
C225        C  0.03182750  0.53318969  0.18410282    -0.13800
C226        C  0.06910539  0.47081775  0.18660953    -0.13300
C227        C  0.98037971  0.44725459  0.18710703    -0.13700
N228        N  0.27959800  0.40891153  0.15971152     0.00100
C229        C  0.29209782  0.39572494  0.12255118     0.02700
C230        C  0.27548079  0.34653934  0.11612192    -0.20200
C231        C  0.24565321  0.32906905  0.14685685    -0.20400
C232        C  0.24638621  0.36857984  0.17093181     0.02600
H233        H  0.27837489  0.32624634  0.08889949     0.16400
H234        H  0.22133802  0.29267840  0.14834805     0.16400
N235        N  0.09473593  0.59987544  0.15579555     0.00100
C236        C  0.09925994  0.60204592  0.11363195     0.02700
C237        C  0.05534795  0.58410724  0.09140695    -0.20200
C238        C  0.02186275  0.56917367  0.11983952    -0.20400
C239        C  0.04685863  0.57516886  0.15836984     0.02600
H240        H  0.04911680  0.57751069  0.05798097     0.16400
H241        H  0.98474409  0.54681298  0.11264468     0.16400
N242        N  0.28777222  0.42264992  0.26256536     0.00100
C243        C  0.30371056  0.42274636  0.30349451     0.02700
C244        C  0.28411017  0.37844326  0.31963335    -0.20200
C245        C  0.25177122  0.35076616  0.28948427    -0.20400
C246        C  0.25147850  0.37965436  0.25680793     0.02600
H247        H  0.28713938  0.36965443  0.35183584     0.16400
H248        H  0.22667615  0.31532911  0.29269164     0.16400
N249        N  0.09724994  0.60599587  0.25709235     0.00100
C250        C  0.10141116  0.61318605  0.29933557     0.02700
C251        C  0.05724482  0.59972016  0.31471527    -0.20200
C252        C  0.02363116  0.58356093  0.28238450    -0.20400
C253        C  0.04939709  0.58323952  0.24819954     0.02600
H254        H  0.05099915  0.59614484  0.34650527     0.16400
H255        H  0.98616630  0.56273276  0.28546117     0.16400
N256        N  0.11307908  0.42297361  0.25935774     0.00100
C257        C  0.12364544  0.42539992  0.30151572     0.02700
C258        C  0.14084013  0.47233365  0.31723775    -0.20200
C259        C  0.13527196  0.49963385  0.28521236    -0.20400
C260        C  0.11433778  0.46821628  0.25160960     0.02600
H261        H  0.14709994  0.48450671  0.34980775     0.16400
H262        H  0.13645982  0.53652099  0.28849099     0.16400
O263        O  0.06632547  0.55648604  0.49163483    -0.77300
O264        O  0.24348223  0.60596616  0.38146843    -0.62000
O265        O  0.34375541  0.61385320  0.46518833    -1.08600
C266        C  0.21656872  0.50694373  0.53432053     1.09600
O267        O  0.19207182  0.61413315  0.42679649    -0.75200
O268        O  0.22027397  0.62382874  0.51043182    -0.62800
Ni269      Ni  0.06871295  0.60323699  0.45072101     1.34900
C270        C  0.25932834  0.63826713  0.53374130     0.88300
O271        O  0.33839391  0.65641096  0.38908196    -0.75700
O272        O  0.07775598  0.65053423  0.40928141    -0.86000
C273        C  0.20443164  0.61284580  0.38956604     0.87900
O274        O  0.04051650  0.55026776  0.41092097    -0.64200
O275        O  0.18799100  0.52415584  0.51353095    -0.83500
C276        C  0.33404385  0.53618566  0.38890585     0.88700
C277        C  0.05079138  0.66827561  0.38717782     1.10300
H278        H  0.24579095  0.53231320  0.44260956     0.42100
O279        O  0.25412668  0.56396299  0.45624342    -1.06200
O280        O  0.29280782  0.61955901  0.53209573    -0.62800
Ni281      Ni  0.30329730  0.56806384  0.49915200     1.26300
O282        O  0.30260734  0.55724328  0.38992453    -0.63000
O283        O  0.26190148  0.52076028  0.53147907    -0.75300
C284        C  0.05810209  0.56114624  0.52932336     0.88100
O285        O  0.02202386  0.57262821  0.53924197    -0.62500
Ni286      Ni  0.19405454  0.57028531  0.47050049     1.27400
Ni287      Ni  0.29492573  0.61016413  0.42211686     1.26100
H288        H  0.01967071  0.64546549  0.47902225     0.42600
O289        O  0.28892866  0.46983071  0.99084592    -0.77300
O290        O  0.29608068  0.64171158  0.88162982    -0.62000
O291        O  0.32414583  0.56494969  0.96609145    -1.08600
C292        C  0.20774144  0.60846967  0.03774242     1.09600
O293        O  0.29613646  0.36786549  0.92587054    -0.75200
O294        O  0.32390245  0.35345828  0.00598041    -0.62800
Ni295      Ni  0.33251979  0.50451625  0.95198149     1.34900
C296        C  0.00458394  0.66142918  0.03193626     0.88300
O297        O  0.02854985  0.59822740  0.88996047    -0.75700
O298        O  0.04536484  0.53341500  0.91238513    -0.86000
C299        C  0.29596422  0.35081106  0.88901215     0.87900
O300        O  0.28046476  0.48249302  0.90989240    -0.64200
O301        O  0.22628385  0.64853897  0.02108427    -0.83500
C302        C  0.25645439  0.50350093  0.88829811     0.88700
C303        C  0.05249807  0.56910303  0.88925847     1.10300
H304        H  0.22939943  0.59145415  0.94176556     0.42100
O305        O  0.26063172  0.60729638  0.95625687    -1.06200
O306        O  0.31671515  0.61664539  0.03431125    -0.62800
Ni307      Ni  0.27164551  0.56664819  0.99829809     1.26300
O308        O  0.26433499  0.54872214  0.89093075    -0.63000
O309        O  0.21890392  0.57089270  0.02926117    -0.75300
C310        C  0.28773580  0.48342325  0.02824309     0.88100
O311        O  0.28388987  0.52405766  0.03780168    -0.62500
Ni312      Ni  0.26310039  0.67113132  0.97347865     1.27400
Ni313      Ni  0.31070045  0.60253944  0.92269683     1.26100
H314        H  0.02093264  0.58423102  0.98070008     0.42600
N315        N  0.29065965  0.43316599  0.65509412     0.00100
C316        C  0.28300976  0.42301722  0.61275556     0.02700
C317        C  0.30021448  0.46356570  0.59098889    -0.20200
C318        C  0.31876941  0.50083444  0.61968095    -0.20400
C319        C  0.31672737  0.48113416  0.65817840     0.02600
H320        H  0.30357087  0.46489082  0.55774432     0.16400
H321        H  0.00784233  0.53657896  0.61279334     0.16400
N322        N  0.29996693  0.44500000  0.75686021     0.00100
C323        C  0.30021888  0.44648916  0.79920322     0.02700
C324        C  0.98348280  0.49258451  0.81524073    -0.20200
C325        C  0.99360858  0.52179340  0.78297662    -0.20400
C326        C  0.98811690  0.49150722  0.74828732     0.02600
H327        H  0.99284778  0.50296517  0.84718939     0.16400
H328        H  0.01483418  0.55964807  0.78605444     0.16400
C329        C  0.20525629  0.37663822  0.66915941     0.49000
H330        H  0.20018189  0.37029367  0.63505282     0.00000
C331        C  0.21336459  0.38452578  0.74911690     0.49100
H332        H  0.21601489  0.38520527  0.78331750     0.00000
C333        C  0.25692169  0.40733491  0.68551098    -0.13700
C334        C  0.17252360  0.40389098  0.68681547    -0.13400
C335        C  0.19356657  0.32842098  0.69045741    -0.13800
C336        C  0.26123040  0.41170743  0.72957592    -0.13800
C337        C  0.17638023  0.40755714  0.73094034    -0.13300
C338        C  0.19723745  0.33233978  0.73151945    -0.13700
C339        C  0.07758011  0.50286905  0.66744126     0.49000
H340        H  0.07419605  0.49740774  0.63341939     0.00000
C341        C  0.08057310  0.50715196  0.74727000     0.49100
H342        H  0.07975027  0.50522415  0.78133689     0.00000
C343        C  0.11524428  0.55095100  0.68692135    -0.13700
C344        C  0.02892390  0.49887825  0.68431153    -0.13400
C345        C  0.09174159  0.46225433  0.68719169    -0.13800
C346        C  0.11622754  0.55372278  0.73109524    -0.13800
C347        C  0.03092932  0.50217776  0.72570414    -0.13300
C348        C  0.09384531  0.46458445  0.72855031    -0.13700
N349        N  0.14988701  0.58068880  0.65944070     0.00100
C350        C  0.15736788  0.56283513  0.62209246     0.02700
C351        C  0.20530664  0.58035169  0.61440285    -0.20200
C352        C  0.22736434  0.61456866  0.64507096    -0.20400
C353        C  0.19172654  0.61628498  0.67008405     0.02600
H354        H  0.22098684  0.57534120  0.58624905     0.16000
H355        H  0.26353119  0.30671681  0.64572496     0.16400
N356        N  0.14323942  0.42218429  0.65723785     0.00100
C357        C  0.14168542  0.41296402  0.61522913     0.02700
C358        C  0.09472734  0.39668824  0.59822938    -0.20200
C359        C  0.06708768  0.40231583  0.62916288    -0.20400
C360        C  0.09818653  0.42172078  0.66369396     0.02600
H361        H  0.08300841  0.39186429  0.56536227     0.16400
H362        H  0.03053061  0.40227201  0.62434889     0.16400
N363        N  0.14951394  0.42718534  0.76010132     0.00100
C364        C  0.15253970  0.42104308  0.80202544     0.02700
C365        C  0.10777048  0.40778244  0.81760384    -0.20200
C366        C  0.07658454  0.41106308  0.78579068    -0.20400
C367        C  0.10357696  0.42678573  0.75240458     0.02600
H368        H  0.10012797  0.40547084  0.85011476     0.16400
H369        H  0.04056565  0.41155213  0.78908421     0.16400
N370        N  0.14847559  0.59018928  0.76198645     0.00100
C371        C  0.15246780  0.58146913  0.80332548     0.02700
C372        C  0.19922688  0.60066435  0.81991143    -0.20200
C373        C  0.22473213  0.62637389  0.78953879    -0.20400
C374        C  0.19215601  0.62298058  0.75614503     0.02600
H375        H  0.21139648  0.60188267  0.85237478     0.16400
H376        H  0.26148992  0.31692535  0.79299407     0.16400
C377        C  0.22109813  0.47453009  0.85680597    -0.09700
C378        C  0.19283196  0.44932473  0.82992878    -0.11200
C379        C  0.11436474  0.57569089  0.83125688    -0.09700
C380        C  0.08672676  0.57391216  0.85802766    -0.11200
C381        C  0.29646300  0.38102155  0.85451862    -0.09700
C382        C  0.29612948  0.40731130  0.82639039    -0.11200
C383        C  0.17667360  0.44321265  0.58936544    -0.09700
C384        C  0.19670594  0.47138974  0.56422569    -0.11200
C385        C  0.27086992  0.37645719  0.59045985    -0.09700
C386        C  0.26517857  0.67669719  0.56500643    -0.11200
C387        C  0.12154205  0.55405857  0.58768150    -0.09700
C388        C  0.09112689  0.55403759  0.56091664    -0.11200
C389        C  0.09627071  0.39012191  0.32879496    -0.09700
C390        C  0.07371514  0.36638572  0.35545604    -0.11200
C391        C  0.14397404  0.61966874  0.32721298    -0.09700
C392        C  0.17307447  0.61919431  0.35545035    -0.11200
C393        C  0.32578965  0.49686230  0.35854431    -0.09700
C394        C  0.31774068  0.46453090  0.33221367    -0.11200
C395        C  0.14284726  0.60740819  0.09235424    -0.09700
C396        C  0.17321024  0.60693352  0.06847207    -0.11200
C397        C  0.29021603  0.45137964  0.06022381    -0.09700
C398        C  0.29326821  0.42512557  0.08745594    -0.11200
C399        C  0.04480280  0.35125685  0.06184984    -0.09700
C400        C  0.07645270  0.37358053  0.08772991    -0.11200
N401        N  0.10522075  0.74820523  0.15656955     0.00100
C402        C  0.11016838  0.74453476  0.11476511     0.02700
C403        C  0.12472264  0.78929880  0.09847223    -0.20200
C404        C  0.12167032  0.82060237  0.12926024    -0.20400
C405        C  0.10614640  0.79399730  0.16312640     0.02600
H406        H  0.12608973  0.79685214  0.06575304     0.16400
H407        H  0.12077100  0.85623478  0.12464600     0.16400
C408        C  0.15233389  0.68780903  0.16931312     0.49000
H409        H  0.15393400  0.68748671  0.13518141     0.00000
C410        C  0.15560048  0.69195925  0.24929566     0.49100
H411        H  0.15954516  0.69453409  0.28357648     0.00000
C412        C  0.20361311  0.70302173  0.19088249    -0.13700
C413        C  0.12719723  0.72298744  0.18650315    -0.13400
C414        C  0.12433647  0.97196665  0.18593260    -0.13800
C415        C  0.20553367  0.70598971  0.23194449    -0.13800
C416        C  0.12947483  0.72562967  0.23063768    -0.13300
C417        C  0.12620237  0.97436675  0.22989662    -0.13700
C418        C  0.03357898  0.82423798  0.24700619     0.49000
H419        H  0.04129469  0.83053782  0.28085311     0.00000
C420        C  0.02530536  0.81546007  0.16714414     0.49100
H421        H  0.02510560  0.81367268  0.13298410     0.00000
C422        C  0.03503257  0.87052479  0.22553045    -0.13700
C423        C  0.07338501  0.80862752  0.22794313    -0.13400
C424        C  0.98463360  0.78566831  0.23137644    -0.13800
C425        C  0.03182657  0.86652524  0.18410642    -0.13800
C426        C  0.06910152  0.80415129  0.18661456    -0.13300
C427        C  0.98037588  0.78059051  0.18711155    -0.13700
N428        N  0.27959361  0.74224763  0.15971608     0.00100
C429        C  0.29209260  0.72906106  0.12255525     0.02700
C430        C  0.27547509  0.67987560  0.11612549    -0.20200
C431        C  0.24564878  0.66240511  0.14686119    -0.20400
C432        C  0.24638223  0.70191572  0.17093676     0.02600
H433        H  0.27836821  0.65958298  0.08890231     0.16400
H434        H  0.22133366  0.62601446  0.14835246     0.16400
N435        N  0.09473617  0.93320879  0.15579650     0.00100
C436        C  0.09925916  0.93537761  0.11363270     0.02700
C437        C  0.05534664  0.91743915  0.09140861    -0.20200
C438        C  0.02186204  0.90250731  0.11984194    -0.20400
C439        C  0.04685865  0.90850344  0.15837206     0.02600
H440        H  0.04911458  0.91084199  0.05798269     0.16400
H441        H  0.98474297  0.88014729  0.11264786     0.16400
N442        N  0.28776871  0.75598528  0.26257006     0.00100
C443        C  0.30370773  0.75608116  0.30349911     0.02700
C444        C  0.28410582  0.71177865  0.31963857    -0.20200
C445        C  0.25176551  0.68410225  0.28949009    -0.20400
C446        C  0.25147346  0.71299022  0.25681339     0.02600
H447        H  0.28713600  0.70298964  0.35184098     0.16400
H448        H  0.22666973  0.64866575  0.29269794     0.16400
N449        N  0.09725519  0.93933083  0.25709292     0.00100
C450        C  0.10142022  0.94652132  0.29933624     0.02700
C451        C  0.05725554  0.93305808  0.31471867    -0.20200
C452        C  0.02363892  0.91690040  0.28238982    -0.20400
C453        C  0.04940124  0.91657673  0.24820288     0.02600
H454        H  0.05101282  0.92948360  0.34650913     0.16400
H455        H  0.98617400  0.89607431  0.28546882     0.16400
N456        N  0.11306824  0.75630129  0.25936208     0.00100
C457        C  0.12363130  0.75872444  0.30152047     0.02700
C458        C  0.14082720  0.80565705  0.31724520    -0.20200
C459        C  0.13526400  0.83296029  0.28522059    -0.20400
C460        C  0.11433077  0.80154558  0.25161577     0.02600
H461        H  0.14708523  0.81782774  0.34981573     0.16400
H462        H  0.13645393  0.86984787  0.28850069     0.16400
O463        O  0.06633904  0.88982695  0.49163518    -0.77300
O464        O  0.24349669  0.93930831  0.38146814    -0.62000
O465        O  0.34376964  0.94719498  0.46518867    -1.08600
C466        C  0.21658365  0.84028465  0.53432116     1.09600
O467        O  0.19208382  0.94747139  0.42679527    -0.75200
O468        O  0.22028587  0.95716787  0.51043099    -0.62800
Ni469      Ni  0.06872622  0.93657687  0.45072065     1.34900
C470        C  0.25933967  0.97160686  0.53374117     0.88300
O471        O  0.33840852  0.98975390  0.38908279    -0.75700
O472        O  0.07776958  0.98387340  0.40928031    -0.86000
C473        C  0.20444454  0.94618505  0.38956502     0.87900
O474        O  0.04052733  0.88360584  0.41092251    -0.64200
O475        O  0.18800563  0.85749574  0.51353084    -0.83500
C476        C  0.33405468  0.86952500  0.38890738     0.88700
C477        C  0.05080582  0.00161685  0.38717788     1.10300
H478        H  0.24580620  0.86565466  0.44260954     0.42100
O479        O  0.25414110  0.89730429  0.45624341    -1.06200
O480        O  0.29282046  0.95290031  0.53209584    -0.62800
Ni481      Ni  0.30331161  0.90140563  0.49915239     1.26300
O482        O  0.30262067  0.89058565  0.38992451    -0.63000
O483        O  0.26191648  0.85410168  0.53147986    -0.75300
C484        C  0.05811521  0.89448671  0.52932361     0.88100
O485        O  0.02203806  0.90597048  0.53924236    -0.62500
Ni486      Ni  0.19406800  0.90362440  0.47049980     1.27400
Ni487      Ni  0.29493994  0.94350636  0.42211715     1.26100
H488        H  0.01968561  0.97880720  0.47902279     0.42600
O489        O  0.28893237  0.80316561  0.99084826    -0.77300
O490        O  0.29607848  0.97504453  0.88162891    -0.62000
O491        O  0.32414611  0.89828439  0.96609095    -1.08600
C492        C  0.20774062  0.94180351  0.03774190     1.09600
O493        O  0.29612886  0.70119294  0.92587152    -0.75200
O494        O  0.32389636  0.68678561  0.00598181    -0.62800
Ni495      Ni  0.33252114  0.83785121  0.95198180     1.34900
C496        C  0.00458425  0.99476417  0.03193532     0.88300
O497        O  0.02854855  0.93156137  0.88995897    -0.75700
O498        O  0.04536411  0.86674931  0.91238366    -0.86000
C499        C  0.29595974  0.68413911  0.88901341     0.87900
O500        O  0.28046540  0.81582656  0.90989349    -0.64200
O501        O  0.22628183  0.98187260  0.02108301    -0.83500
C502        C  0.25645527  0.83683384  0.88829814     0.88700
C503        C  0.05249656  0.90243687  0.88925653     1.10300
H504        H  0.22939908  0.92478749  0.94176549     0.42100
O505        O  0.26063120  0.94063009  0.95625644    -1.06200
O506        O  0.31671602  0.94998035  0.03431044    -0.62800
Ni507      Ni  0.27164601  0.89998285  0.99829802     1.26300
O508        O  0.26433476  0.88205494  0.89093038    -0.63000
O509        O  0.21890465  0.90422725  0.02926148    -0.75300
C510        C  0.28773737  0.81675900  0.02824492     0.88100
O511        O  0.28389103  0.85739350  0.03780221    -0.62500
Ni512      Ni  0.26309928  0.00446506  0.97347776     1.27400
Ni513      Ni  0.31069953  0.93587317  0.92269595     1.26100
H514        H  0.02093277  0.91756624  0.98069892     0.42600
N515        N  0.29066505  0.76649114  0.65509308     0.00100
C516        C  0.28301484  0.75634036  0.61275480     0.02700
C517        C  0.30021794  0.79688771  0.59098636    -0.20200
C518        C  0.31877277  0.83415780  0.61967701    -0.20400
C519        C  0.31673172  0.81445983  0.65817547     0.02600
H520        H  0.30357114  0.79821175  0.55774128     0.16400
H521        H  0.00784392  0.86990240  0.61278782     0.16400
N522        N  0.29997176  0.77832696  0.75685890     0.00100
C523        C  0.30022287  0.77981713  0.79920198     0.02700
C524        C  0.98348449  0.82591298  0.81523867    -0.20200
C525        C  0.99361058  0.85512103  0.78297394    -0.20400
C526        C  0.98812056  0.82483424  0.74828529     0.02600
H527        H  0.99284715  0.83629495  0.84718752     0.16400
H528        H  0.01483443  0.89297619  0.78605109     0.16400
C529        C  0.20526008  0.70996673  0.66915836     0.49000
H530        H  0.20018520  0.70362203  0.63505181     0.00000
C531        C  0.21336830  0.71785483  0.74911592     0.49100
H532        H  0.21601828  0.71853461  0.78331652     0.00000
C533        C  0.25692631  0.74066134  0.68551001    -0.13700
C534        C  0.17252989  0.73722253  0.68681408    -0.13400
C535        C  0.19356741  0.66174932  0.69045663    -0.13800
C536        C  0.26123495  0.74503422  0.72957496    -0.13800
C537        C  0.17638592  0.74088841  0.73093888    -0.13300
C538        C  0.19723862  0.66566857  0.73151873    -0.13700
C539        C  0.07758567  0.83620237  0.66743901     0.49000
H540        H  0.07420241  0.83074223  0.63341704     0.00000
C541        C  0.08057744  0.84048373  0.74726773     0.49100
H542        H  0.07975448  0.83855560  0.78133465     0.00000
C543        C  0.11524806  0.88428518  0.68691983    -0.13700
C544        C  0.02892805  0.83220758  0.68430900    -0.13400
C545        C  0.09174943  0.79558867  0.68718897    -0.13800
C546        C  0.11622998  0.88705628  0.73109353    -0.13800
C547        C  0.03093305  0.83550650  0.72570173    -0.13300
C548        C  0.09385241  0.79791795  0.72854774    -0.13700
N549        N  0.14989275  0.91402326  0.65944054     0.00100
C550        C  0.15737652  0.89617001  0.62209317     0.02700
C551        C  0.20531556  0.91368958  0.61440463    -0.20200
C552        C  0.22737019  0.94790784  0.64507253    -0.20400
C553        C  0.19173048  0.94962197  0.67008426     0.02600
H554        H  0.22099730  0.90868070  0.58625114     0.16000
H555        H  0.26352801  0.64003612  0.64572491     0.16400
N556        N  0.14324972  0.75552044  0.65723643     0.00100
C557        C  0.14169849  0.74630275  0.61522752     0.02700
C558        C  0.09474137  0.73002720  0.59822561    -0.20200
C559        C  0.06709947  0.73565286  0.62915787    -0.20400
C560        C  0.09819611  0.75505631  0.66369058     0.02600
H561        H  0.08302458  0.72520499  0.56535806     0.16400
H562        H  0.03054259  0.73560924  0.62434200     0.16400
N563        N  0.14952020  0.76051803  0.76009924     0.00100
C564        C  0.15254478  0.75437498  0.80202327     0.02700
C565        C  0.10777516  0.74111407  0.81760082    -0.20200
C566        C  0.07659001  0.74439531  0.78578731    -0.20400
C567        C  0.10358339  0.76011865  0.75240179     0.02600
H568        H  0.10013189  0.73880203  0.85011157     0.16400
H569        H  0.04057093  0.74488428  0.78908052     0.16400
N570        N  0.14847551  0.92352413  0.76198507     0.00100
C571        C  0.15246692  0.91480345  0.80332402     0.02700
C572        C  0.19922576  0.93399822  0.81991062    -0.20200
C573        C  0.22473163  0.95970838  0.78953855    -0.20400
C574        C  0.19215607  0.95631593  0.75614457     0.02600
H575        H  0.21139475  0.93521559  0.85237401     0.16400
H576        H  0.26148832  0.65025259  0.79299471     0.16400
C577        C  0.22110063  0.80786239  0.85680533    -0.09700
C578        C  0.19283603  0.78265667  0.82992742    -0.11200
C579        C  0.11436317  0.90902479  0.83125478    -0.09700
C580        C  0.08672493  0.90724588  0.85802540    -0.11200
C581        C  0.29646247  0.71435023  0.85451946    -0.09700
C582        C  0.29613213  0.74063984  0.82639034    -0.11200
C583        C  0.17668803  0.77655329  0.58936590    -0.09700
C584        C  0.19672082  0.80473092  0.56422664    -0.11200
C585        C  0.27087162  0.70977915  0.59046071    -0.09700
C586        C  0.26518734  0.01003602  0.56500653    -0.11200
C587        C  0.12155239  0.88739355  0.58768128    -0.09700
C588        C  0.09113815  0.88737476  0.56091654    -0.11200
C589        C  0.09625539  0.72344441  0.32879754    -0.09700
C590        C  0.07370057  0.69970737  0.35545855    -0.11200
C591        C  0.14398517  0.95300464  0.32721156    -0.09700
C592        C  0.17308658  0.95253150  0.35544871    -0.11200
C593        C  0.32579710  0.83019935  0.35854761    -0.09700
C594        C  0.31774315  0.79786608  0.33221809    -0.11200
C595        C  0.14284611  0.94074013  0.09235414    -0.09700
C596        C  0.17320911  0.94026657  0.06847158    -0.11200
C597        C  0.29021500  0.78471591  0.06022687    -0.09700
C598        C  0.29326479  0.75846227  0.08746009    -0.11200
C599        C  0.04479457  0.68458611  0.06185365    -0.09700
C600        C  0.07644313  0.70691056  0.08773459    -0.11200
N601        N  0.43855755  0.08153934  0.15656729     0.00100
C602        C  0.44350506  0.07786823  0.11476289     0.02700
C603        C  0.45805964  0.12263210  0.09846970    -0.20200
C604        C  0.45500673  0.15393608  0.12925713    -0.20400
C605        C  0.43948272  0.12733135  0.16312353     0.02600
H606        H  0.45942672  0.13018493  0.06575038     0.16400
H607        H  0.45410721  0.18956841  0.12464218     0.16400
C608        C  0.48566942  0.02114220  0.16931174     0.49000
H609        H  0.48726885  0.02081880  0.13517995     0.00000
C610        C  0.48893775  0.02529461  0.24929439     0.49100
H611        H  0.49288315  0.02787021  0.28357517     0.00000
C612        C  0.53694895  0.03635465  0.19088064    -0.13700
C613        C  0.46053397  0.05632188  0.18650137    -0.13400
C614        C  0.45767108  0.30530043  0.18592950    -0.13800
C615        C  0.53887040  0.03932371  0.23194263    -0.13800
C616        C  0.46281269  0.05896549  0.23063602    -0.13300
C617        C  0.45953648  0.30770044  0.22989361    -0.13700
C618        C  0.36691529  0.15757295  0.24700290     0.49000
H619        H  0.37463087  0.16387322  0.28084996     0.00000
C620        C  0.35864141  0.14879368  0.16714075     0.49100
H621        H  0.35844176  0.14700581  0.13298074     0.00000
C622        C  0.36836827  0.20385907  0.22552654    -0.13700
C623        C  0.40672120  0.14196195  0.22794001    -0.13400
C624        C  0.31796974  0.11900374  0.23137351    -0.13800
C625        C  0.36516250  0.19985895  0.18410258    -0.13800
C626        C  0.40243757  0.13748518  0.18661148    -0.13300
C627        C  0.31371177  0.11392491  0.18710863    -0.13700
N628        N  0.61292798  0.07558278  0.15971339     0.00100
C629        C  0.62542579  0.06239690  0.12255183     0.02700
C630        C  0.60880922  0.01321153  0.11612156    -0.20200
C631        C  0.57898469  0.99573997  0.14685813    -0.20400
C632        C  0.57971814  0.03525002  0.17093450     0.02600
H633        H  0.61170175  0.99291965  0.08889789     0.16400
H634        H  0.55467022  0.95934904  0.14834939     0.16400
N635        N  0.42807139  0.26654290  0.15579292     0.00100
C636        C  0.43259492  0.26871195  0.11362916     0.02700
C637        C  0.38868277  0.25077264  0.09140456    -0.20200
C638        C  0.35519798  0.23584018  0.11983768    -0.20400
C639        C  0.38019410  0.24183680  0.15836798     0.02600
H640        H  0.38245117  0.24417584  0.05797862     0.16400
H641        H  0.31807908  0.21347978  0.11264357     0.16400
N642        N  0.62110340  0.08932365  0.26256768     0.00100
C643        C  0.63704256  0.08942130  0.30349697     0.02700
C644        C  0.61744425  0.04511829  0.31963671    -0.20200
C645        C  0.58510573  0.01743974  0.28948797    -0.20400
C646        C  0.58481108  0.04632674  0.25681102     0.02600
H647        H  0.62047607  0.03632956  0.35183902     0.16400
H648        H  0.56001280  0.98200176  0.29269550     0.16400
N649        N  0.43058802  0.27266556  0.25708992     0.00100
C650        C  0.43475091  0.27985710  0.29933309     0.02700
C651        C  0.39058510  0.26639454  0.31471372    -0.20200
C652        C  0.35697020  0.25023529  0.28238372    -0.20400
C653        C  0.38273465  0.24991102  0.24819828     0.02600
H654        H  0.38434027  0.26282149  0.34650398     0.16400
H655        H  0.31950502  0.22940918  0.28546139     0.16400
N656        N  0.44640874  0.08963940  0.25936034     0.00100
C657        C  0.45697535  0.09206557  0.30151836     0.02700
C658        C  0.47417032  0.13899913  0.31724083    -0.20200
C659        C  0.46860283  0.16629973  0.28521549    -0.20400
C660        C  0.44766847  0.13488258  0.25161244     0.02600
H661        H  0.48043073  0.15117189  0.34981085     0.16400
H662        H  0.46979157  0.20318708  0.28849424     0.16400
O663        O  0.39967003  0.22316792  0.49163596    -0.77300
O664        O  0.57682836  0.27264805  0.38146676    -0.62000
O665        O  0.67710168  0.28053628  0.46518749    -1.08600
C666        C  0.54991638  0.17362544  0.53432080     1.09600
O667        O  0.52541476  0.28080996  0.42679367    -0.75200
O668        O  0.55361487  0.29050667  0.51042972    -0.62800
Ni669      Ni  0.40205761  0.26991641  0.45071992     1.34900
C670        C  0.59266898  0.30494803  0.53373945     0.88300
O671        O  0.67174088  0.32309354  0.38908101    -0.75700
O672        O  0.41110128  0.31721107  0.40927812    -0.86000
C673        C  0.53777548  0.27952344  0.38956346     0.87900
O674        O  0.37385843  0.21694468  0.41092232    -0.64200
O675        O  0.52133742  0.19083419  0.51352903    -0.83500
C676        C  0.66738631  0.20286471  0.38890626     0.88700
C677        C  0.38413805  0.33495488  0.38717549     1.10300
H678        H  0.57913970  0.19899558  0.44260963     0.42100
O679        O  0.58747347  0.23064505  0.45624272    -1.06200
O680        O  0.62615152  0.28624374  0.53209399    -0.62800
Ni681      Ni  0.63664389  0.23474829  0.49915232     1.26300
O682        O  0.63595266  0.22392582  0.38992328    -0.63000
O683        O  0.59524947  0.18744501  0.53148084    -0.75300
C684        C  0.39144673  0.22782931  0.52932437     0.88100
O685        O  0.35537044  0.23931480  0.53924274    -0.62500
Ni686      Ni  0.52739928  0.23696312  0.47049814     1.27400
Ni687      Ni  0.62827197  0.27684677  0.42211583     1.26100
H688        H  0.35301803  0.31214896  0.47902091     0.42600
O689        O  0.62226573  0.13650303  0.99084609    -0.77300
O690        O  0.62941880  0.30838363  0.88162815    -0.62000
O691        O  0.65748369  0.23162208  0.96609037    -1.08600
C692        C  0.54107887  0.27514330  0.03773979     1.09600
O693        O  0.62946170  0.03452638  0.92587081    -0.75200
O694        O  0.65722853  0.02012039  0.00598158    -0.62800
Ni695      Ni  0.66585761  0.17118834  0.95198181     1.34900
C696        C  0.33792375  0.32810120  0.03193394     0.88300
O697        O  0.36188753  0.26489783  0.88995887    -0.75700
O698        O  0.37870300  0.20008636  0.91238567    -0.86000
C699        C  0.62929178  0.01747236  0.88901260     0.87900
O700        O  0.61380391  0.14916525  0.90989179    -0.64200
O701        O  0.55962227  0.31521298  0.02108240    -0.83500
C702        C  0.58979401  0.17017301  0.88829682     0.88700
C703        C  0.38583554  0.23577321  0.88925772     1.10300
H704        H  0.56273833  0.25812811  0.94176376     0.42100
O705        O  0.59397052  0.27396976  0.95625519    -1.06200
O706        O  0.65005374  0.28331777  0.03430942    -0.62800
Ni707      Ni  0.60498326  0.23332141  0.99829640     1.26300
O708        O  0.59767345  0.21539404  0.89092973    -0.63000
O709        O  0.55224158  0.23756652  0.02925870    -0.75300
C710        C  0.62107080  0.15009607  0.02824278     0.88100
O711        O  0.61722601  0.19073105  0.03780040    -0.62500
Ni712      Ni  0.59644012  0.33780491  0.97347716     1.27400
Ni713      Ni  0.64403881  0.26921158  0.92269530     1.26100
H714        H  0.35427052  0.25090354  0.98069883     0.42600
N715        N  0.62400037  0.09982781  0.65509348     0.00100
C716        C  0.61634968  0.08967794  0.61275510     0.02700
C717        C  0.63355114  0.13022606  0.59098712    -0.20200
C718        C  0.65210665  0.16749550  0.61967837    -0.20400
C719        C  0.65006649  0.14779656  0.65817645     0.02600
H720        H  0.63690337  0.13155117  0.55774196     0.16400
H721        H  0.34117742  0.20324040  0.61278946     0.16400
N722        N  0.63330659  0.11166293  0.75685927     0.00100
C723        C  0.63355928  0.11315210  0.79920245     0.02700
C724        C  0.31682317  0.15924748  0.81524016    -0.20200
C725        C  0.32694732  0.18845635  0.78297582    -0.20400
C726        C  0.32145558  0.15817038  0.74828625     0.02600
H727        H  0.32618812  0.16962836  0.84718902     0.16400
H728        H  0.34817185  0.22631132  0.78605334     0.16400
C729        C  0.53859524  0.04330326  0.66915831     0.49000
H730        H  0.53352066  0.03695885  0.63505164     0.00000
C731        C  0.54670315  0.05119082  0.74911595     0.49100
H732        H  0.54935306  0.05187051  0.78331657     0.00000
C733        C  0.59026159  0.07399740  0.68551019    -0.13700
C734        C  0.50586560  0.07055965  0.68681416    -0.13400
C735        C  0.52690161  0.99508554  0.69045644    -0.13800
C736        C  0.59457003  0.07837001  0.72957518    -0.13800
C737        C  0.50972152  0.07422524  0.73093897    -0.13300
C738        C  0.53057257  0.99900449  0.73151857    -0.13700
C739        C  0.41092023  0.16953809  0.66743973     0.49000
H740        H  0.40753707  0.16407812  0.63341769     0.00000
C741        C  0.41391224  0.17381911  0.74726847     0.49100
H742        H  0.41308954  0.17189096  0.78133538     0.00000
C743        C  0.44858265  0.21762059  0.68692072    -0.13700
C744        C  0.36226288  0.16554385  0.68430979    -0.13400
C745        C  0.42508381  0.12892423  0.68718957    -0.13800
C746        C  0.44956506  0.22039136  0.73109447    -0.13800
C747        C  0.36426794  0.16884250  0.72570255    -0.13300
C748        C  0.42718677  0.13125331  0.72854830    -0.13700
N749        N  0.48322614  0.24735950  0.65944122     0.00100
C750        C  0.49070848  0.22950814  0.62209262     0.02700
C751        C  0.53864702  0.24702903  0.61440278    -0.20200
C752        C  0.56070240  0.28124622  0.64507130    -0.20400
C753        C  0.52506356  0.28295835  0.67008479     0.02600
H754        H  0.55432751  0.24202220  0.58624815     0.16000
H755        H  0.59686623  0.97337743  0.64572705     0.16400
N756        N  0.47658600  0.08885856  0.65723684     0.00100
C757        C  0.47503488  0.07964128  0.61522785     0.02700
C758        C  0.42807767  0.06336397  0.59822614    -0.20200
C759        C  0.40043543  0.06898849  0.62915853    -0.20400
C760        C  0.43153192  0.08839273  0.66369109     0.02600
H761        H  0.41636069  0.05854147  0.56535863     0.16400
H762        H  0.36387808  0.06894366  0.62434291     0.16400
N763        N  0.48285642  0.09385563  0.76009931     0.00100
C764        C  0.48588219  0.08771393  0.80202348     0.02700
C765        C  0.44111307  0.07445265  0.81760197    -0.20200
C766        C  0.40992678  0.07773195  0.78578865    -0.20400
C767        C  0.43691908  0.09345479  0.75240240     0.02600
H768        H  0.43347067  0.07214137  0.85011293     0.16400
H769        H  0.37390754  0.07822018  0.78908231     0.16400
N770        N  0.48181149  0.25685830  0.76198617     0.00100
C771        C  0.48580454  0.24813708  0.80332481     0.02700
C772        C  0.53256366  0.26733377  0.81991060    -0.20200
C773        C  0.55806760  0.29304551  0.78953832    -0.20400
C774        C  0.52549070  0.28965183  0.75614513     0.02600
H775        H  0.54473374  0.26855188  0.85237379     0.16400
H776        H  0.59482130  0.98358667  0.79299482     0.16400
C777        C  0.55443914  0.14120204  0.85680407    -0.09700
C778        C  0.52617404  0.11599623  0.82992660    -0.11200
C779        C  0.44770181  0.24235882  0.83125638    -0.09700
C780        C  0.42006399  0.24058108  0.85802702    -0.11200
C781        C  0.62979536  0.04768370  0.85451880    -0.09700
C782        C  0.62946644  0.07397376  0.82638984    -0.11200
C783        C  0.51002311  0.10989344  0.58936603    -0.09700
C784        C  0.53005449  0.13807154  0.56422650    -0.11200
C785        C  0.60421011  0.04311732  0.59046067    -0.09700
C786        C  0.59851474  0.34337677  0.56500494    -0.11200
C787        C  0.45488310  0.22073361  0.58768186    -0.09700
C788        C  0.42446900  0.22071650  0.56091755    -0.11200
C789        C  0.42960282  0.05678638  0.32879776    -0.09700
C790        C  0.40704888  0.03304901  0.35545902    -0.11200
C791        C  0.47731472  0.28634027  0.32720992    -0.09700
C792        C  0.50641657  0.28586813  0.35544706    -0.11200
C793        C  0.65912897  0.16353958  0.35854564    -0.09700
C794        C  0.65107587  0.13120683  0.33221552    -0.11200
C795        C  0.47618259  0.27407704  0.09235103    -0.09700
C796        C  0.50654652  0.27360585  0.06846876    -0.11200
C797        C  0.62354749  0.11805250  0.06022436    -0.09700
C798        C  0.62659727  0.09179867  0.08745731    -0.11200
C799        C  0.37812904  0.01792108  0.06185195    -0.09700
C800        C  0.40977847  0.04024469  0.08773258    -0.11200
N801        N  0.43856222  0.41487472  0.15656459     0.00100
C802        C  0.44351110  0.41120465  0.11476041     0.02700
C803        C  0.45806349  0.45596877  0.09846757    -0.20200
C804        C  0.45500744  0.48727130  0.12925495    -0.20400
C805        C  0.43948458  0.46066586  0.16312112     0.02600
H806        H  0.45943056  0.46352197  0.06574833     0.16400
H807        H  0.45410479  0.52290236  0.12464007     0.16400
C808        C  0.48567175  0.35447571  0.16930898     0.49000
H809        H  0.48727154  0.35415275  0.13517727     0.00000
C810        C  0.48893969  0.35862769  0.24929150     0.49100
H811        H  0.49288519  0.36120345  0.28357225     0.00000
C812        C  0.53695093  0.36968633  0.19087782    -0.13700
C813        C  0.46053752  0.38965640  0.18649872    -0.13400
C814        C  0.45766797  0.63863273  0.18593284    -0.13800
C815        C  0.53887210  0.37265480  0.23193974    -0.13800
C816        C  0.46281604  0.39229968  0.23063329    -0.13300
C817        C  0.45953248  0.64103172  0.22989696    -0.13700
C818        C  0.36691554  0.49090219  0.24700183     0.49000
H819        H  0.37463075  0.49720130  0.28084908     0.00000
C820        C  0.35864164  0.48212537  0.16713959     0.49100
H821        H  0.35844159  0.48033873  0.13297954     0.00000
C822        C  0.36836656  0.53718843  0.22552674    -0.13700
C823        C  0.40672258  0.47529389  0.22793806    -0.13400
C824        C  0.31797097  0.45233210  0.23137189    -0.13800
C825        C  0.36516083  0.53318970  0.18410281    -0.13800
C826        C  0.40243872  0.47081777  0.18660953    -0.13300
C827        C  0.31371306  0.44725460  0.18710703    -0.13700
N828        N  0.61293132  0.40891153  0.15971152     0.00100
C829        C  0.62543114  0.39572494  0.12255118     0.02700
C830        C  0.60881411  0.34653934  0.11612192    -0.20200
C831        C  0.57898653  0.32906905  0.14685685    -0.20400
C832        C  0.57971953  0.36857984  0.17093181     0.02600
H833        H  0.61170823  0.32624633  0.08889951     0.16400
H834        H  0.55467134  0.29267840  0.14834805     0.16400
N835        N  0.42806926  0.59987544  0.15579554     0.00100
C836        C  0.43259327  0.60204592  0.11363194     0.02700
C837        C  0.38868128  0.58410725  0.09140695    -0.20200
C838        C  0.35519609  0.56917368  0.11983952    -0.20400
C839        C  0.38019196  0.57516888  0.15836983     0.02600
H840        H  0.38245012  0.57751068  0.05798097     0.16400
H841        H  0.31807742  0.54681298  0.11264468     0.16400
N842        N  0.62110554  0.42264992  0.26256536     0.00100
C843        C  0.63704388  0.42274634  0.30349454     0.02700
C844        C  0.61744348  0.37844323  0.31963345    -0.20200
C845        C  0.58510455  0.35076616  0.28948429    -0.20400
C846        C  0.58481182  0.37965437  0.25680793     0.02600
H847        H  0.62047268  0.36965442  0.35183591     0.16400
H848        H  0.56000945  0.31532911  0.29269163     0.16400
N849        N  0.43058326  0.60599588  0.25709235     0.00100
C850        C  0.43474448  0.61318605  0.29933557     0.02700
C851        C  0.39057815  0.59972017  0.31471527    -0.20200
C852        C  0.35696449  0.58356095  0.28238449    -0.20400
C853        C  0.38273041  0.58323955  0.24819953     0.02600
H854        H  0.38433247  0.59614484  0.34650527     0.16400
H855        H  0.31949963  0.56273277  0.28546117     0.16400
N856        N  0.44641239  0.42297361  0.25935774     0.00100
C857        C  0.45697876  0.42539992  0.30151572     0.02700
C858        C  0.47417345  0.47233365  0.31723775    -0.20200
C859        C  0.46860529  0.49963385  0.28521237    -0.20400
C860        C  0.44767111  0.46821629  0.25160961     0.02600
H861        H  0.48043326  0.48450671  0.34980775     0.16400
H862        H  0.46979315  0.53652100  0.28849100     0.16400
O863        O  0.39965879  0.55648604  0.49163483    -0.77300
O864        O  0.57681557  0.60596616  0.38146842    -0.62000
O865        O  0.67708875  0.61385321  0.46518833    -1.08600
C866        C  0.54990207  0.50694373  0.53432053     1.09600
O867        O  0.52540519  0.61413313  0.42679649    -0.75200
O868        O  0.55360732  0.62382874  0.51043181    -0.62800
Ni869      Ni  0.40204628  0.60323697  0.45072101     1.34900
C870        C  0.59266168  0.63826713  0.53374131     0.88300
O871        O  0.67172723  0.65641097  0.38908196    -0.75700
O872        O  0.41108932  0.65053423  0.40928141    -0.86000
C873        C  0.53776498  0.61284580  0.38956603     0.87900
O874        O  0.37384983  0.55026776  0.41092097    -0.64200
O875        O  0.52132437  0.52415585  0.51353093    -0.83500
C876        C  0.66737718  0.53618566  0.38890585     0.88700
C877        C  0.38412472  0.66827562  0.38717781     1.10300
H878        H  0.57912435  0.53231319  0.44260955     0.42100
O879        O  0.58746006  0.56396298  0.45624341    -1.06200
O880        O  0.62614116  0.61955901  0.53209573    -0.62800
Ni881      Ni  0.63663065  0.56806384  0.49915200     1.26300
O882        O  0.63594067  0.55724329  0.38992453    -0.63000
O883        O  0.59523482  0.52076028  0.53147908    -0.75300
C884        C  0.39143539  0.56114623  0.52932336     0.88100
O885        O  0.35535713  0.57262818  0.53924196    -0.62500
Ni886      Ni  0.52738795  0.57028530  0.47050048     1.27400
Ni887      Ni  0.62825907  0.61016413  0.42211686     1.26100
H888        H  0.35300412  0.64546545  0.47902225     0.42600
O889        O  0.62226198  0.46983071  0.99084592    -0.77300
O890        O  0.62941400  0.64171158  0.88162982    -0.62000
O891        O  0.65747915  0.56494969  0.96609145    -1.08600
C892        C  0.54107482  0.60846968  0.03774245     1.09600
O893        O  0.62946986  0.36786550  0.92587053    -0.75200
O894        O  0.65723590  0.35345830  0.00598040    -0.62800
Ni895      Ni  0.66585311  0.50451625  0.95198149     1.34900
C896        C  0.33791729  0.66142918  0.03193626     0.88300
O897        O  0.36188324  0.59822739  0.88996048    -0.75700
O898        O  0.37869823  0.53341499  0.91238514    -0.86000
C899        C  0.62929756  0.35081107  0.88901213     0.87900
O900        O  0.61379808  0.48249302  0.90989240    -0.64200
O901        O  0.55961722  0.64853896  0.02108428    -0.83500
C902        C  0.58978771  0.50350093  0.88829811     0.88700
C903        C  0.38583145  0.56910303  0.88925849     1.10300
H904        H  0.56273275  0.59145415  0.94176556     0.42100
O905        O  0.59396504  0.60729638  0.95625687    -1.06200
O906        O  0.65004848  0.61664539  0.03431125    -0.62800
Ni907      Ni  0.60497884  0.56664819  0.99829809     1.26300
O908        O  0.59766831  0.54872214  0.89093075    -0.63000
O909        O  0.55223728  0.57089270  0.02926117    -0.75300
C910        C  0.62106912  0.48342325  0.02824309     0.88100
O911        O  0.61722320  0.52405766  0.03780168    -0.62500
Ni912      Ni  0.59643372  0.67113132  0.97347865     1.27400
Ni913      Ni  0.64403377  0.60253944  0.92269683     1.26100
H914        H  0.35426602  0.58423104  0.98070009     0.42600
N915        N  0.62399298  0.43316599  0.65509412     0.00100
C916        C  0.61634308  0.42301722  0.61275556     0.02700
C917        C  0.63354780  0.46356570  0.59098889    -0.20200
C918        C  0.65210273  0.50083444  0.61968096    -0.20400
C919        C  0.65006070  0.48113416  0.65817841     0.02600
H920        H  0.63690419  0.46489082  0.55774432     0.16400
H921        H  0.34117567  0.53657896  0.61279334     0.16400
N922        N  0.63330027  0.44500003  0.75686022     0.00100
C923        C  0.63355222  0.44648923  0.79920322     0.02700
C924        C  0.31681617  0.49258452  0.81524073    -0.20200
C925        C  0.32694193  0.52179339  0.78297662    -0.20400
C926        C  0.32145024  0.49150721  0.74828733     0.02600
H927        H  0.32618113  0.50296519  0.84718939     0.16400
H928        H  0.34816753  0.55964807  0.78605443     0.16400
C929        C  0.53858962  0.37663823  0.66915941     0.49000
H930        H  0.53351521  0.37029366  0.63505282     0.00000
C931        C  0.54669796  0.38452579  0.74911690     0.49100
H932        H  0.54934827  0.38520527  0.78331750     0.00000
C933        C  0.59025503  0.40733491  0.68551098    -0.13700
C934        C  0.50585695  0.40389099  0.68681547    -0.13400
C935        C  0.52689989  0.32842098  0.69045741    -0.13800
C936        C  0.59456376  0.41170743  0.72957592    -0.13800
C937        C  0.50971360  0.40755717  0.73094035    -0.13300
C938        C  0.53057078  0.33233979  0.73151946    -0.13700
C939        C  0.41091344  0.50286905  0.66744126     0.49000
H940        H  0.40752937  0.49740774  0.63341939     0.00000
C941        C  0.41390643  0.50715196  0.74727000     0.49100
H942        H  0.41308359  0.50522414  0.78133689     0.00000
C943        C  0.44857760  0.55095099  0.68692135    -0.13700
C944        C  0.36225723  0.49887825  0.68431154    -0.13400
C945        C  0.42507492  0.46225433  0.68719169    -0.13800
C946        C  0.44956086  0.55372278  0.73109524    -0.13800
C947        C  0.36426265  0.50217776  0.72570414    -0.13300
C948        C  0.42717864  0.46458445  0.72855031    -0.13700
N949        N  0.48322032  0.58068879  0.65944070     0.00100
C950        C  0.49070120  0.56283512  0.62209246     0.02700
C951        C  0.53863996  0.58035169  0.61440284    -0.20200
C952        C  0.56069766  0.61456865  0.64507096    -0.20400
C953        C  0.52505986  0.61628496  0.67008407     0.02600
H954        H  0.55432016  0.57534120  0.58624904     0.16000
H955        H  0.59686451  0.30671681  0.64572496     0.16400
N956        N  0.47657275  0.42218429  0.65723785     0.00100
C957        C  0.47501874  0.41296402  0.61522913     0.02700
C958        C  0.42806066  0.39668824  0.59822939    -0.20200
C959        C  0.40042101  0.40231583  0.62916289    -0.20400
C960        C  0.43151986  0.42172078  0.66369397     0.02600
H961        H  0.41634173  0.39186429  0.56536227     0.16400
H962        H  0.36386394  0.40227201  0.62434889     0.16400
N963        N  0.48284728  0.42718534  0.76010132     0.00100
C964        C  0.48587303  0.42104307  0.80202544     0.02700
C965        C  0.44110381  0.40778244  0.81760384    -0.20200
C966        C  0.40991787  0.41106308  0.78579068    -0.20400
C967        C  0.43691030  0.42678572  0.75240458     0.02600
H968        H  0.43346130  0.40547084  0.85011475     0.16400
H969        H  0.37389898  0.41155213  0.78908421     0.16400
N970        N  0.48180891  0.59018928  0.76198645     0.00100
C971        C  0.48580113  0.58146913  0.80332547     0.02700
C972        C  0.53256020  0.60066435  0.81991143    -0.20200
C973        C  0.55806546  0.62637388  0.78953880    -0.20400
C974        C  0.52548935  0.62298057  0.75614504     0.02600
H975        H  0.54472979  0.60188267  0.85237478     0.16400
H976        H  0.59482324  0.31692535  0.79299407     0.16400
C977        C  0.55443145  0.47453009  0.85680597    -0.09700
C978        C  0.52616529  0.44932473  0.82992878    -0.11200
C979        C  0.44769808  0.57569088  0.83125687    -0.09700
C980        C  0.42006014  0.57391216  0.85802767    -0.11200
C981        C  0.62979632  0.38102156  0.85451861    -0.09700
C982        C  0.62946281  0.40731136  0.82639042    -0.11200
C983        C  0.51000692  0.44321265  0.58936544    -0.09700
C984        C  0.53003926  0.47138974  0.56422570    -0.11200
C985        C  0.60420324  0.37645719  0.59045985    -0.09700
C986        C  0.59851189  0.67669719  0.56500643    -0.11200
C987        C  0.45487537  0.55405857  0.58768149    -0.09700
C988        C  0.42446020  0.55403760  0.56091664    -0.11200
C989        C  0.42960403  0.39012190  0.32879496    -0.09700
C990        C  0.40704845  0.36638571  0.35545604    -0.11200
C991        C  0.47730736  0.61966874  0.32721298    -0.09700
C992        C  0.50640779  0.61919431  0.35545035    -0.11200
C993        C  0.65912297  0.49686230  0.35854431    -0.09700
C994        C  0.65107400  0.46453091  0.33221367    -0.11200
C995        C  0.47618060  0.60740819  0.09235423    -0.09700
C996        C  0.50654362  0.60693352  0.06847208    -0.11200
C997        C  0.62354935  0.45137964  0.06022381    -0.09700
C998        C  0.62660153  0.42512557  0.08745594    -0.11200
C999        C  0.37813612  0.35125686  0.06184982    -0.09700
C1000       C  0.40978602  0.37358053  0.08772991    -0.11200
N1001       N  0.43855408  0.74820523  0.15656954     0.00100
C1002       C  0.44350170  0.74453476  0.11476511     0.02700
C1003       C  0.45805596  0.78929881  0.09847223    -0.20200
C1004       C  0.45500364  0.82060237  0.12926024    -0.20400
C1005       C  0.43947974  0.79399730  0.16312640     0.02600
H1006       H  0.45942305  0.79685214  0.06575304     0.16400
H1007       H  0.45410432  0.85623479  0.12464600     0.16400
C1008       C  0.48566721  0.68780903  0.16931312     0.49000
H1009       H  0.48726732  0.68748671  0.13518141     0.00000
C1010       C  0.48893381  0.69195924  0.24929565     0.49100
H1011       H  0.49287850  0.69453406  0.28357648     0.00000
C1012       C  0.53694643  0.70302173  0.19088249    -0.13700
C1013       C  0.46053055  0.72298743  0.18650315    -0.13400
C1014       C  0.45766981  0.97196667  0.18593259    -0.13800
C1015       C  0.53886699  0.70598971  0.23194449    -0.13800
C1016       C  0.46280816  0.72562965  0.23063768    -0.13300
C1017       C  0.45953570  0.97436677  0.22989661    -0.13700
C1018       C  0.36691238  0.82423799  0.24700619     0.49000
H1019       H  0.37462810  0.83053779  0.28085311     0.00000
C1020       C  0.35863875  0.81546011  0.16714414     0.49100
H1021       H  0.35843899  0.81367275  0.13298410     0.00000
C1022       C  0.36836598  0.87052482  0.22553047    -0.13700
C1023       C  0.40671838  0.80862750  0.22794312    -0.13400
C1024       C  0.31796699  0.78566833  0.23137644    -0.13800
C1025       C  0.36516001  0.86652527  0.18410644    -0.13800
C1026       C  0.40243488  0.80415128  0.18661456    -0.13300
C1027       C  0.31370924  0.78059055  0.18711155    -0.13700
N1028       N  0.61292693  0.74224762  0.15971608     0.00100
C1029       C  0.62542594  0.72906105  0.12255527     0.02700
C1030       C  0.60880842  0.67987559  0.11612550    -0.20200
C1031       C  0.57898209  0.66240511  0.14686120    -0.20400
C1032       C  0.57971555  0.70191572  0.17093676     0.02600
H1033       H  0.61170157  0.65958298  0.08890233     0.16400
H1034       H  0.55466698  0.62601445  0.14835246     0.16400
N1035       N  0.42806951  0.93320883  0.15579649     0.00100
C1036       C  0.43259248  0.93537762  0.11363269     0.02700
C1037       C  0.38867997  0.91743915  0.09140860    -0.20200
C1038       C  0.35519538  0.90250732  0.11984196    -0.20400
C1039       C  0.38019201  0.90850347  0.15837207     0.02600
H1040       H  0.38244788  0.91084198  0.05798268     0.16400
H1041       H  0.31807631  0.88014727  0.11264789     0.16400
N1042       N  0.62110203  0.75598528  0.26257006     0.00100
C1043       C  0.63704105  0.75608116  0.30349911     0.02700
C1044       C  0.61743914  0.71177865  0.31963857    -0.20200
C1045       C  0.58509883  0.68410225  0.28949009    -0.20400
C1046       C  0.58480678  0.71299022  0.25681339     0.02600
H1047       H  0.62046932  0.70298964  0.35184098     0.16400
H1048       H  0.56000305  0.64866575  0.29269794     0.16400
N1049       N  0.43058854  0.93933084  0.25709291     0.00100
C1050       C  0.43475360  0.94652132  0.29933624     0.02700
C1051       C  0.39058895  0.93305804  0.31471872    -0.20200
C1052       C  0.35697233  0.91690042  0.28238987    -0.20400
C1053       C  0.38273460  0.91657675  0.24820289     0.02600
H1054       H  0.38434630  0.92948354  0.34650918     0.16400
H1055       H  0.31950740  0.89607435  0.28546888     0.16400
N1056       N  0.44640163  0.75630129  0.25936210     0.00100
C1057       C  0.45696473  0.75872444  0.30152047     0.02700
C1058       C  0.47416058  0.80565705  0.31724520    -0.20200
C1059       C  0.46859733  0.83296028  0.28522060    -0.20400
C1060       C  0.44766412  0.80154557  0.25161577     0.02600
H1061       H  0.48041857  0.81782773  0.34981573     0.16400
H1062       H  0.46978722  0.86984784  0.28850070     0.16400
O1063       O  0.39967241  0.88982696  0.49163517    -0.77300
O1064       O  0.57683001  0.93930831  0.38146814    -0.62000
O1065       O  0.67710296  0.94719497  0.46518867    -1.08600
C1066       C  0.54991696  0.84028464  0.53432118     1.09600
O1067       O  0.52541714  0.94747139  0.42679528    -0.75200
O1068       O  0.55361919  0.95716787  0.51043099    -0.62800
Ni1069     Ni  0.40205956  0.93657688  0.45072065     1.34900
C1070       C  0.59267299  0.97160686  0.53374117     0.88300
O1071       O  0.67174184  0.98975390  0.38908279    -0.75700
O1072       O  0.41110290  0.98387341  0.40928031    -0.86000
C1073       C  0.53777786  0.94618505  0.38956503     0.87900
O1074       O  0.37386067  0.88360584  0.41092252    -0.64200
O1075       O  0.52133895  0.85749573  0.51353085    -0.83500
C1076       C  0.66738800  0.86952500  0.38890738     0.88700
C1077       C  0.38413914  0.00161685  0.38717788     1.10300
H1078       H  0.57913952  0.86565466  0.44260954     0.42100
O1079       O  0.58747442  0.89730429  0.45624341    -1.06200
O1080       O  0.62615378  0.95290031  0.53209584    -0.62800
Ni1081     Ni  0.63664493  0.90140563  0.49915239     1.26300
O1082       O  0.63595399  0.89058565  0.38992451    -0.63000
O1083       O  0.59524979  0.85410167  0.53147987    -0.75300
C1084       C  0.39144859  0.89448673  0.52932361     0.88100
O1085       O  0.35537145  0.90597048  0.53924235    -0.62500
Ni1086     Ni  0.52740132  0.90362440  0.47049980     1.27400
Ni1087     Ni  0.62827326  0.94350636  0.42211715     1.26100
H1088       H  0.35301895  0.97880721  0.47902279     0.42600
O1089       O  0.62226567  0.80316558  0.99084823    -0.77300
O1090       O  0.62941180  0.97504454  0.88162891    -0.62000
O1091       O  0.65747945  0.89828438  0.96609092    -1.08600
C1092       C  0.54107396  0.94180350  0.03774190     1.09600
O1093       O  0.62946218  0.70119294  0.92587152    -0.75200
O1094       O  0.65722968  0.68678562  0.00598180    -0.62800
Ni1095     Ni  0.66585445  0.83785120  0.95198179     1.34900
C1096       C  0.33791753  0.99476417  0.03193533     0.88300
O1097       O  0.36188189  0.93156132  0.88995896    -0.75700
O1098       O  0.37869757  0.86674933  0.91238370    -0.86000
C1099       C  0.62929306  0.68413911  0.88901341     0.87900
O1100       O  0.61379872  0.81582656  0.90989348    -0.64200
O1101       O  0.55961515  0.98187260  0.02108301    -0.83500
C1102       C  0.58978859  0.83683384  0.88829814     0.88700
C1103       C  0.38582995  0.90243686  0.88925653     1.10300
H1104       H  0.56273240  0.92478748  0.94176551     0.42100
O1105       O  0.59396453  0.94063008  0.95625645    -1.06200
O1106       O  0.65004954  0.94998033  0.03431039    -0.62800
Ni1107     Ni  0.60497940  0.89998285  0.99829804     1.26300
O1108       O  0.59766808  0.88205494  0.89093037    -0.63000
O1109       O  0.55223803  0.90422726  0.02926152    -0.75300
C1110       C  0.62107072  0.81675894  0.02824490     0.88100
O1111       O  0.61722454  0.85739352  0.03780223    -0.62500
Ni1112     Ni  0.59643262  0.00446505  0.97347778     1.27400
Ni1113     Ni  0.64403285  0.93587317  0.92269594     1.26100
H1114       H  0.35426613  0.91756627  0.98069897     0.42600
N1115       N  0.62399838  0.76649114  0.65509307     0.00100
C1116       C  0.61634816  0.75634036  0.61275479     0.02700
C1117       C  0.63355126  0.79688771  0.59098636    -0.20200
C1118       C  0.65210609  0.83415780  0.61967702    -0.20400
C1119       C  0.65006505  0.81445983  0.65817548     0.02600
H1120       H  0.63690446  0.79821175  0.55774129     0.16400
H1121       H  0.34117727  0.86990240  0.61278782     0.16400
N1122       N  0.63330516  0.77832694  0.75685889     0.00100
C1123       C  0.63355620  0.77981713  0.79920197     0.02700
C1124       C  0.31681780  0.82591298  0.81523866    -0.20200
C1125       C  0.32694378  0.85512108  0.78297393    -0.20400
C1126       C  0.32145379  0.82483426  0.74828527     0.02600
H1127       H  0.32618058  0.83629492  0.84718750     0.16400
H1128       H  0.34816761  0.89297621  0.78605110     0.16400
C1129       C  0.53859342  0.70996668  0.66915837     0.49000
H1130       H  0.53351851  0.70362190  0.63505182     0.00000
C1131       C  0.54670168  0.71785482  0.74911592     0.49100
H1132       H  0.54935167  0.71853462  0.78331652     0.00000
C1133       C  0.59025967  0.74066129  0.68551000    -0.13700
C1134       C  0.50586325  0.73722251  0.68681409    -0.13400
C1135       C  0.52690074  0.66174928  0.69045665    -0.13800
C1136       C  0.59456834  0.74503421  0.72957496    -0.13800
C1137       C  0.50971930  0.74088841  0.73093889    -0.13300
C1138       C  0.53057199  0.66566856  0.73151873    -0.13700
C1139       C  0.41091899  0.83620237  0.66743902     0.49000
H1140       H  0.40753571  0.83074223  0.63341704     0.00000
C1141       C  0.41391073  0.84048374  0.74726775     0.49100
H1142       H  0.41308776  0.83855561  0.78133467     0.00000
C1143       C  0.44858139  0.88428518  0.68691983    -0.13700
C1144       C  0.36226138  0.83220758  0.68430901    -0.13400
C1145       C  0.42508275  0.79558867  0.68718898    -0.13800
C1146       C  0.44956330  0.88705629  0.73109354    -0.13800
C1147       C  0.36426633  0.83550652  0.72570174    -0.13300
C1148       C  0.42718572  0.79791795  0.72854775    -0.13700
N1149       N  0.48322610  0.91402325  0.65944053     0.00100
C1150       C  0.49070990  0.89617000  0.62209319     0.02700
C1151       C  0.53864894  0.91368957  0.61440473    -0.20200
C1152       C  0.56070357  0.94790787  0.64507257    -0.20400
C1153       C  0.52506382  0.94962198  0.67008425     0.02600
H1154       H  0.55433075  0.90868069  0.58625125     0.16000
H1155       H  0.59686133  0.64003611  0.64572491     0.16400
N1156       N  0.47658305  0.75552040  0.65723647     0.00100
C1157       C  0.47503184  0.74630275  0.61522755     0.02700
C1158       C  0.42807476  0.73002722  0.59822562    -0.20200
C1159       C  0.40043292  0.73565286  0.62915789    -0.20400
C1160       C  0.43152948  0.75505629  0.66369061     0.02600
H1161       H  0.41635793  0.72520503  0.56535807     0.16400
H1162       H  0.36387601  0.73560924  0.62434201     0.16400
N1163       N  0.48285355  0.76051801  0.76009924     0.00100
C1164       C  0.48587811  0.75437497  0.80202327     0.02700
C1165       C  0.44110849  0.74111407  0.81760082    -0.20200
C1166       C  0.40992334  0.74439531  0.78578730    -0.20400
C1167       C  0.43691672  0.76011864  0.75240179     0.02600
H1168       H  0.43346522  0.73880203  0.85011156     0.16400
H1169       H  0.37390427  0.74488428  0.78908051     0.16400
N1170       N  0.48180885  0.92352413  0.76198508     0.00100
C1171       C  0.48580031  0.91480345  0.80332401     0.02700
C1172       C  0.53255916  0.93399818  0.81991056    -0.20200
C1173       C  0.55806501  0.95970841  0.78953851    -0.20400
C1174       C  0.52548941  0.95631594  0.75614457     0.02600
H1175       H  0.54472820  0.93521555  0.85237395     0.16400
H1176       H  0.59482165  0.65025258  0.79299472     0.16400
C1177       C  0.55443395  0.80786239  0.85680533    -0.09700
C1178       C  0.52616935  0.78265667  0.82992742    -0.11200
C1179       C  0.44769656  0.90902481  0.83125479    -0.09700
C1180       C  0.42005829  0.90724590  0.85802538    -0.11200
C1181       C  0.62979579  0.71435024  0.85451946    -0.09700
C1182       C  0.62946546  0.74063985  0.82639034    -0.11200
C1183       C  0.51002140  0.77655335  0.58936599    -0.09700
C1184       C  0.53005415  0.80473094  0.56422670    -0.11200
C1185       C  0.60420494  0.70977915  0.59046070    -0.09700
C1186       C  0.59852066  0.01003603  0.56500653    -0.11200
C1187       C  0.45488578  0.88739355  0.58768127    -0.09700
C1188       C  0.42447154  0.88737477  0.56091654    -0.11200
C1189       C  0.42958877  0.72344443  0.32879755    -0.09700
C1190       C  0.40703390  0.69970739  0.35545854    -0.11200
C1191       C  0.47731854  0.95300465  0.32721154    -0.09700
C1192       C  0.50641991  0.95253150  0.35544872    -0.11200
C1193       C  0.65913042  0.83019935  0.35854761    -0.09700
C1194       C  0.65107647  0.79786608  0.33221809    -0.11200
C1195       C  0.47617943  0.94074013  0.09235413    -0.09700
C1196       C  0.50654243  0.94026656  0.06847158    -0.11200
C1197       C  0.62354825  0.78471578  0.06022681    -0.09700
C1198       C  0.62659809  0.75846220  0.08746009    -0.11200
C1199       C  0.37812789  0.68458612  0.06185365    -0.09700
C1200       C  0.40977645  0.70691056  0.08773459    -0.11200
N1201       N  0.77189086  0.08153934  0.15656730     0.00100
C1202       C  0.77683840  0.07786824  0.11476290     0.02700
C1203       C  0.79139300  0.12263211  0.09846970    -0.20200
C1204       C  0.78834005  0.15393608  0.12925712    -0.20400
C1205       C  0.77281604  0.12733135  0.16312352     0.02600
H1206       H  0.79276017  0.13018495  0.06575039     0.16400
H1207       H  0.78744058  0.18956842  0.12464218     0.16400
C1208       C  0.81900274  0.02114220  0.16931173     0.49000
H1209       H  0.82060217  0.02081880  0.13517995     0.00000
C1210       C  0.82227108  0.02529460  0.24929439     0.49100
H1211       H  0.82621648  0.02787018  0.28357517     0.00000
C1212       C  0.87028228  0.03635466  0.19088064    -0.13700
C1213       C  0.79386729  0.05632188  0.18650137    -0.13400
C1214       C  0.79100442  0.30530042  0.18592950    -0.13800
C1215       C  0.87220373  0.03932371  0.23194263    -0.13800
C1216       C  0.79614602  0.05896547  0.23063601    -0.13300
C1217       C  0.79286981  0.30770044  0.22989361    -0.13700
C1218       C  0.70024860  0.15757294  0.24700290     0.49000
H1219       H  0.70796419  0.16387322  0.28084995     0.00000
C1220       C  0.69197473  0.14879368  0.16714075     0.49100
H1221       H  0.69177504  0.14700581  0.13298073     0.00000
C1222       C  0.70170160  0.20385907  0.22552653    -0.13700
C1223       C  0.74005451  0.14196191  0.22794000    -0.13400
C1224       C  0.65130306  0.11900374  0.23137351    -0.13800
C1225       C  0.69849584  0.19985895  0.18410258    -0.13800
C1226       C  0.73577089  0.13748518  0.18661147    -0.13300
C1227       C  0.64704509  0.11392491  0.18710863    -0.13700
N1228       N  0.94626131  0.07558279  0.15971339     0.00100
C1229       C  0.95875911  0.06239690  0.12255183     0.02700
C1230       C  0.94214254  0.01321153  0.11612156    -0.20200
C1231       C  0.91231801  0.99573997  0.14685813    -0.20400
C1232       C  0.91305147  0.03525002  0.17093450     0.02600
H1233       H  0.94503505  0.99291964  0.08889790     0.16400
H1234       H  0.88800354  0.95934904  0.14834939     0.16400
N1235       N  0.76140478  0.26654285  0.15579292     0.00100
C1236       C  0.76592828  0.26871195  0.11362916     0.02700
C1237       C  0.72201612  0.25077266  0.09140457    -0.20200
C1238       C  0.68853134  0.23584020  0.11983770    -0.20400
C1239       C  0.71352749  0.24183678  0.15836798     0.02600
H1240       H  0.71578448  0.24417586  0.05797865     0.16400
H1241       H  0.65141244  0.21347981  0.11264361     0.16400
N1242       N  0.95443675  0.08932365  0.26256768     0.00100
C1243       C  0.97037589  0.08942130  0.30349697     0.02700
C1244       C  0.95077757  0.04511830  0.31963672    -0.20200
C1245       C  0.91843905  0.01743975  0.28948797    -0.20400
C1246       C  0.91814441  0.04632675  0.25681101     0.02600
H1247       H  0.95380939  0.03632956  0.35183902     0.16400
H1248       H  0.89334612  0.98200177  0.29269549     0.16400
N1249       N  0.76392135  0.27266556  0.25708992     0.00100
C1250       C  0.76808423  0.27985710  0.29933309     0.02700
C1251       C  0.72391842  0.26639454  0.31471372    -0.20200
C1252       C  0.69030353  0.25023529  0.28238372    -0.20400
C1253       C  0.71606797  0.24991102  0.24819828     0.02600
H1254       H  0.71767359  0.26282151  0.34650398     0.16400
H1255       H  0.65283834  0.22940919  0.28546139     0.16400
N1256       N  0.77974211  0.08963939  0.25936034     0.00100
C1257       C  0.79030877  0.09206558  0.30151834     0.02700
C1258       C  0.80750370  0.13899917  0.31724074    -0.20200
C1259       C  0.80193617  0.16629974  0.28521540    -0.20400
C1260       C  0.78100178  0.13488254  0.25161240     0.02600
H1261       H  0.81376405  0.15117198  0.34981075     0.16400
H1262       H  0.80312487  0.20318708  0.28849409     0.16400
O1263       O  0.73300333  0.22316790  0.49163595    -0.77300
O1264       O  0.91016174  0.27264808  0.38146677    -0.62000
O1265       O  0.01043507  0.28053627  0.46518749    -1.08600
C1266       C  0.88324970  0.17362544  0.53432080     1.09600
O1267       O  0.85874810  0.28080996  0.42679367    -0.75200
O1268       O  0.88694819  0.29050667  0.51042972    -0.62800
Ni1269     Ni  0.73539093  0.26991640  0.45071989     1.34900
C1270       C  0.92600230  0.30494803  0.53373945     0.88300
O1271       O  0.00507427  0.32309353  0.38908101    -0.75700
O1272       O  0.74443461  0.31721109  0.40927813    -0.86000
C1273       C  0.87110883  0.27952345  0.38956346     0.87900
O1274       O  0.70719180  0.21694475  0.41092220    -0.64200
O1275       O  0.85467075  0.19083419  0.51352903    -0.83500
C1276       C  0.00071967  0.20286470  0.38890626     0.88700
C1277       C  0.71747138  0.33495488  0.38717549     1.10300
H1278       H  0.91247308  0.19899559  0.44260963     0.42100
O1279       O  0.92080684  0.23064506  0.45624272    -1.06200
O1280       O  0.95948485  0.28624374  0.53209399    -0.62800
Ni1281     Ni  0.96997724  0.23474830  0.49915232     1.26300
O1282       O  0.96928602  0.22392581  0.38992327    -0.63000
O1283       O  0.92858279  0.18744502  0.53148084    -0.75300
C1284       C  0.72478005  0.22782931  0.52932436     0.88100
O1285       O  0.68870376  0.23931480  0.53924273    -0.62500
Ni1286     Ni  0.86073263  0.23696313  0.47049814     1.27400
Ni1287     Ni  0.96160536  0.27684677  0.42211583     1.26100
H1288       H  0.68635136  0.31214896  0.47902090     0.42600
O1289       O  0.95559905  0.13650304  0.99084609    -0.77300
O1290       O  0.96275212  0.30838363  0.88162815    -0.62000
O1291       O  0.99081702  0.23162208  0.96609037    -1.08600
C1292       C  0.87441220  0.27514330  0.03773979     1.09600
O1293       O  0.96279502  0.03452637  0.92587081    -0.75200
O1294       O  0.99056182  0.02012040  0.00598159    -0.62800
Ni1295     Ni  0.99919094  0.17118834  0.95198181     1.34900
C1296       C  0.67125711  0.32810120  0.03193395     0.88300
O1297       O  0.69522085  0.26489783  0.88995886    -0.75700
O1298       O  0.71203632  0.20008636  0.91238567    -0.86000
C1299       C  0.96262510  0.01747236  0.88901260     0.87900
O1300       O  0.94713723  0.14916525  0.90989179    -0.64200
O1301       O  0.89295559  0.31521298  0.02108240    -0.83500
C1302       C  0.92312733  0.17017301  0.88829682     0.88700
C1303       C  0.71916886  0.23577321  0.88925772     1.10300
H1304       H  0.89607165  0.25812811  0.94176376     0.42100
O1305       O  0.92730384  0.27396976  0.95625519    -1.06200
O1306       O  0.98338707  0.28331777  0.03430943    -0.62800
Ni1307     Ni  0.93831658  0.23332141  0.99829640     1.26300
O1308       O  0.93100678  0.21539404  0.89092972    -0.63000
O1309       O  0.88557490  0.23756652  0.02925870    -0.75300
C1310       C  0.95440412  0.15009607  0.02824278     0.88100
O1311       O  0.95055933  0.19073105  0.03780040    -0.62500
Ni1312     Ni  0.92977344  0.33780491  0.97347716     1.27400
Ni1313     Ni  0.97737214  0.26921158  0.92269530     1.26100
H1314       H  0.68760385  0.25090354  0.98069883     0.42600
N1315       N  0.95733378  0.09982778  0.65509349     0.00100
C1316       C  0.94968305  0.08967793  0.61275511     0.02700
C1317       C  0.96688450  0.13022604  0.59098712    -0.20200
C1318       C  0.98544011  0.16749544  0.61967837    -0.20400
C1319       C  0.98339992  0.14779652  0.65817644     0.02600
H1320       H  0.97023663  0.13155117  0.55774195     0.16400
H1321       H  0.67451074  0.20324040  0.61278946     0.16400
N1322       N  0.96663992  0.11166293  0.75685928     0.00100
C1323       C  0.96689260  0.11315210  0.79920245     0.02700
C1324       C  0.65015649  0.15924748  0.81524016    -0.20200
C1325       C  0.66028064  0.18845635  0.78297582    -0.20400
C1326       C  0.65478890  0.15817038  0.74828625     0.02600
H1327       H  0.65952144  0.16962836  0.84718902     0.16400
H1328       H  0.68150517  0.22631132  0.78605334     0.16400
C1329       C  0.87192859  0.04330327  0.66915830     0.49000
H1330       H  0.86685400  0.03695886  0.63505164     0.00000
C1331       C  0.88003648  0.05119083  0.74911594     0.49100
H1332       H  0.88268638  0.05187051  0.78331657     0.00000
C1333       C  0.92359495  0.07399741  0.68551019    -0.13700
C1334       C  0.83919893  0.07055966  0.68681416    -0.13400
C1335       C  0.86023494  0.99508555  0.69045643    -0.13800
C1336       C  0.92790337  0.07837002  0.72957518    -0.13800
C1337       C  0.84305484  0.07422524  0.73093896    -0.13300
C1338       C  0.86390590  0.99900450  0.73151856    -0.13700
C1339       C  0.74425355  0.16953809  0.66743973     0.49000
H1340       H  0.74087039  0.16407812  0.63341769     0.00000
C1341       C  0.74724556  0.17381911  0.74726847     0.49100
H1342       H  0.74642286  0.17189096  0.78133538     0.00000
C1343       C  0.78191597  0.21762059  0.68692072    -0.13700
C1344       C  0.69559620  0.16554385  0.68430979    -0.13400
C1345       C  0.75841713  0.12892423  0.68718957    -0.13800
C1346       C  0.78289838  0.22039136  0.73109447    -0.13800
C1347       C  0.69760126  0.16884250  0.72570255    -0.13300
C1348       C  0.76052009  0.13125331  0.72854830    -0.13700
N1349       N  0.81655946  0.24735950  0.65944122     0.00100
C1350       C  0.82404180  0.22950814  0.62209262     0.02700
C1351       C  0.87198034  0.24702903  0.61440278    -0.20200
C1352       C  0.89403572  0.28124622  0.64507130    -0.20400
C1353       C  0.85839688  0.28295835  0.67008479     0.02600
H1354       H  0.88766083  0.24202220  0.58624815     0.16000
H1355       H  0.93019955  0.97337743  0.64572705     0.16400
N1356       N  0.80991932  0.08885856  0.65723684     0.00100
C1357       C  0.80836820  0.07964128  0.61522785     0.02700
C1358       C  0.76141099  0.06336397  0.59822614    -0.20200
C1359       C  0.73376875  0.06898849  0.62915853    -0.20400
C1360       C  0.76486524  0.08839273  0.66369109     0.02600
H1361       H  0.74969401  0.05854147  0.56535863     0.16400
H1362       H  0.69721140  0.06894366  0.62434291     0.16400
N1363       N  0.81618974  0.09385563  0.76009931     0.00100
C1364       C  0.81921551  0.08771393  0.80202348     0.02700
C1365       C  0.77444639  0.07445265  0.81760197    -0.20200
C1366       C  0.74326010  0.07773195  0.78578865    -0.20400
C1367       C  0.77025240  0.09345479  0.75240240     0.02600
H1368       H  0.76680399  0.07214137  0.85011293     0.16400
H1369       H  0.70724086  0.07822018  0.78908231     0.16400
N1370       N  0.81514481  0.25685830  0.76198617     0.00100
C1371       C  0.81913787  0.24813708  0.80332481     0.02700
C1372       C  0.86589698  0.26733377  0.81991060    -0.20200
C1373       C  0.89140092  0.29304551  0.78953832    -0.20400
C1374       C  0.85882402  0.28965183  0.75614514     0.02600
H1375       H  0.87806706  0.26855188  0.85237379     0.16400
H1376       H  0.92815463  0.98358667  0.79299482     0.16400
C1377       C  0.88777246  0.14120204  0.85680407    -0.09700
C1378       C  0.85950736  0.11599623  0.82992660    -0.11200
C1379       C  0.78103513  0.24235882  0.83125638    -0.09700
C1380       C  0.75339731  0.24058108  0.85802702    -0.11200
C1381       C  0.96312868  0.04768370  0.85451880    -0.09700
C1382       C  0.96279977  0.07397376  0.82638984    -0.11200
C1383       C  0.84335643  0.10989344  0.58936603    -0.09700
C1384       C  0.86338781  0.13807154  0.56422650    -0.11200
C1385       C  0.93754344  0.04311732  0.59046066    -0.09700
C1386       C  0.93184806  0.34337677  0.56500494    -0.11200
C1387       C  0.78821642  0.22073361  0.58768185    -0.09700
C1388       C  0.75780232  0.22071650  0.56091754    -0.11200
C1389       C  0.76293621  0.05678643  0.32879777    -0.09700
C1390       C  0.74038222  0.03304903  0.35545901    -0.11200
C1391       C  0.81064805  0.28634026  0.32720992    -0.09700
C1392       C  0.83974991  0.28586812  0.35544706    -0.11200
C1393       C  0.99246230  0.16353957  0.35854564    -0.09700
C1394       C  0.98440919  0.13120683  0.33221552    -0.11200
C1395       C  0.80951592  0.27407704  0.09235101    -0.09700
C1396       C  0.83987985  0.27360585  0.06846875    -0.11200
C1397       C  0.95688081  0.11805249  0.06022436    -0.09700
C1398       C  0.95993059  0.09179868  0.08745731    -0.11200
C1399       C  0.71146244  0.01792110  0.06185194    -0.09700
C1400       C  0.74311182  0.04024471  0.08773260    -0.11200
N1401       N  0.77189554  0.41487472  0.15656459     0.00100
C1402       C  0.77684442  0.41120465  0.11476041     0.02700
C1403       C  0.79139681  0.45596877  0.09846757    -0.20200
C1404       C  0.78834076  0.48727130  0.12925495    -0.20400
C1405       C  0.77281790  0.46066586  0.16312112     0.02600
H1406       H  0.79276388  0.46352197  0.06574833     0.16400
H1407       H  0.78743811  0.52290236  0.12464007     0.16400
C1408       C  0.81900508  0.35447571  0.16930898     0.49000
H1409       H  0.82060486  0.35415275  0.13517727     0.00000
C1410       C  0.82227301  0.35862769  0.24929150     0.49100
H1411       H  0.82621847  0.36120346  0.28357224     0.00000
C1412       C  0.87028426  0.36968634  0.19087782    -0.13700
C1413       C  0.79387084  0.38965639  0.18649872    -0.13400
C1414       C  0.79100129  0.63863273  0.18593284    -0.13800
C1415       C  0.87220542  0.37265480  0.23193974    -0.13800
C1416       C  0.79614936  0.39229969  0.23063328    -0.13300
C1417       C  0.79286580  0.64103172  0.22989696    -0.13700
C1418       C  0.70024886  0.49090219  0.24700183     0.49000
H1419       H  0.70796407  0.49720130  0.28084908     0.00000
C1420       C  0.69197496  0.48212537  0.16713959     0.49100
H1421       H  0.69177491  0.48033873  0.13297954     0.00000
C1422       C  0.70169988  0.53718843  0.22552674    -0.13700
C1423       C  0.74005590  0.47529389  0.22793806    -0.13400
C1424       C  0.65130429  0.45233210  0.23137189    -0.13800
C1425       C  0.69849415  0.53318970  0.18410281    -0.13800
C1426       C  0.73577204  0.47081777  0.18660953    -0.13300
C1427       C  0.64704638  0.44725460  0.18710703    -0.13700
N1428       N  0.94626463  0.40891154  0.15971152     0.00100
C1429       C  0.95876446  0.39572494  0.12255118     0.02700
C1430       C  0.94214743  0.34653934  0.11612192    -0.20200
C1431       C  0.91231985  0.32906905  0.14685685    -0.20400
C1432       C  0.91305285  0.36857984  0.17093181     0.02600
H1433       H  0.94504156  0.32624634  0.08889951     0.16400
H1434       H  0.88800466  0.29267840  0.14834805     0.16400
N1435       N  0.76140258  0.59987544  0.15579554     0.00100
C1436       C  0.76592659  0.60204592  0.11363194     0.02700
C1437       C  0.72201460  0.58410725  0.09140695    -0.20200
C1438       C  0.68852941  0.56917368  0.11983952    -0.20400
C1439       C  0.71352528  0.57516888  0.15836983     0.02600
H1440       H  0.71578344  0.57751068  0.05798097     0.16400
H1441       H  0.65141074  0.54681298  0.11264468     0.16400
N1442       N  0.95443885  0.42264992  0.26256535     0.00100
C1443       C  0.97037719  0.42274636  0.30349451     0.02700
C1444       C  0.95077680  0.37844325  0.31963335    -0.20200
C1445       C  0.91843786  0.35076615  0.28948427    -0.20400
C1446       C  0.91814514  0.37965436  0.25680793     0.02600
H1447       H  0.95380603  0.36965443  0.35183584     0.16400
H1448       H  0.89334279  0.31532910  0.29269165     0.16400
N1449       N  0.76391658  0.60599588  0.25709235     0.00100
C1450       C  0.76807780  0.61318605  0.29933557     0.02700
C1451       C  0.72391147  0.59972017  0.31471527    -0.20200
C1452       C  0.69029781  0.58356095  0.28238450    -0.20400
C1453       C  0.71606373  0.58323955  0.24819953     0.02600
H1454       H  0.71766579  0.59614484  0.34650527     0.16400
H1455       H  0.65283295  0.56273277  0.28546117     0.16400
N1456       N  0.77974571  0.42297361  0.25935774     0.00100
C1457       C  0.79031208  0.42539992  0.30151572     0.02700
C1458       C  0.80750680  0.47233365  0.31723775    -0.20200
C1459       C  0.80193861  0.49963385  0.28521237    -0.20400
C1460       C  0.78100442  0.46821629  0.25160961     0.02600
H1461       H  0.81376671  0.48450672  0.34980775     0.16400
H1462       H  0.80312651  0.53652101  0.28849100     0.16400
O1463       O  0.73299211  0.55648604  0.49163483    -0.77300
O1464       O  0.91014887  0.60596610  0.38146841    -0.62000
O1465       O  0.01042207  0.61385322  0.46518833    -1.08600
C1466       C  0.88323542  0.50694373  0.53432053     1.09600
O1467       O  0.85873851  0.61413308  0.42679649    -0.75200
O1468       O  0.88694066  0.62382873  0.51043181    -0.62800
Ni1469     Ni  0.73537960  0.60323697  0.45072101     1.34900
C1470       C  0.92599501  0.63826712  0.53374130     0.88300
O1471       O  0.00506057  0.65641096  0.38908196    -0.75700
O1472       O  0.74442263  0.65053423  0.40928141    -0.86000
C1473       C  0.87109825  0.61284567  0.38956602     0.87900
O1474       O  0.70718315  0.55026775  0.41092097    -0.64200
O1475       O  0.85465773  0.52415586  0.51353094    -0.83500
C1476       C  0.00071052  0.53618566  0.38890585     0.88700
C1477       C  0.71745804  0.66827562  0.38717781     1.10300
H1478       H  0.91245771  0.53231319  0.44260955     0.42100
O1479       O  0.92079341  0.56396297  0.45624342    -1.06200
O1480       O  0.95947449  0.61955900  0.53209573    -0.62800
Ni1481     Ni  0.96996402  0.56806384  0.49915201     1.26300
O1482       O  0.96927401  0.55724329  0.38992453    -0.63000
O1483       O  0.92856818  0.52076027  0.53147907    -0.75300
C1484       C  0.72476871  0.56114623  0.52932336     0.88100
O1485       O  0.68869046  0.57262818  0.53924197    -0.62500
Ni1486     Ni  0.86072129  0.57028529  0.47050049     1.27400
Ni1487     Ni  0.96159240  0.61016412  0.42211686     1.26100
H1488       H  0.68633745  0.64546546  0.47902225     0.42600
O1489       O  0.95559530  0.46983071  0.99084592    -0.77300
O1490       O  0.96274731  0.64171158  0.88162982    -0.62000
O1491       O  0.99081247  0.56494969  0.96609145    -1.08600
C1492       C  0.87440814  0.60846968  0.03774245     1.09600
O1493       O  0.96280317  0.36786550  0.92587054    -0.75200
O1494       O  0.99056923  0.35345830  0.00598040    -0.62800
Ni1495     Ni  0.99918643  0.50451625  0.95198149     1.34900
C1496       C  0.67125061  0.66142918  0.03193626     0.88300
O1497       O  0.69521656  0.59822739  0.88996048    -0.75700
O1498       O  0.71203155  0.53341499  0.91238514    -0.86000
C1499       C  0.96263088  0.35081106  0.88901214     0.87900
O1500       O  0.94713140  0.48249302  0.90989240    -0.64200
O1501       O  0.89295054  0.64853896  0.02108428    -0.83500
C1502       C  0.92312103  0.50350093  0.88829811     0.88700
C1503       C  0.71916478  0.56910304  0.88925849     1.10300
H1504       H  0.89606607  0.59145415  0.94176556     0.42100
O1505       O  0.92729836  0.60729638  0.95625687    -1.06200
O1506       O  0.98338181  0.61664539  0.03431125    -0.62800
Ni1507     Ni  0.93831215  0.56664819  0.99829809     1.26300
O1508       O  0.93100164  0.54872215  0.89093075    -0.63000
O1509       O  0.88557060  0.57089270  0.02926117    -0.75300
C1510       C  0.95440244  0.48342325  0.02824309     0.88100
O1511       O  0.95055652  0.52405766  0.03780168    -0.62500
Ni1512     Ni  0.92976705  0.67113132  0.97347866     1.27400
Ni1513     Ni  0.97736709  0.60253944  0.92269683     1.26100
H1514       H  0.68759934  0.58423104  0.98070009     0.42600
N1515       N  0.95732630  0.43316599  0.65509411     0.00100
C1516       C  0.94967640  0.42301722  0.61275556     0.02700
C1517       C  0.96688113  0.46356570  0.59098889    -0.20200
C1518       C  0.98543606  0.50083444  0.61968095    -0.20400
C1519       C  0.98339403  0.48113416  0.65817840     0.02600
H1520       H  0.97023751  0.46489081  0.55774433     0.16400
H1521       H  0.67450899  0.53657896  0.61279334     0.16400
N1522       N  0.96663360  0.44500001  0.75686020     0.00100
C1523       C  0.96688557  0.44648915  0.79920321     0.02700
C1524       C  0.65014950  0.49258460  0.81524069    -0.20200
C1525       C  0.66027530  0.52179348  0.78297657    -0.20400
C1526       C  0.65478360  0.49150724  0.74828733     0.02600
H1527       H  0.65951442  0.50296533  0.84718935     0.16400
H1528       H  0.68150089  0.55964815  0.78605435     0.16400
C1529       C  0.87192294  0.37663822  0.66915940     0.49000
H1530       H  0.86684853  0.37029366  0.63505282     0.00000
C1531       C  0.88003128  0.38452578  0.74911690     0.49100
H1532       H  0.88268158  0.38520522  0.78331750     0.00000
C1533       C  0.92358835  0.40733491  0.68551097    -0.13700
C1534       C  0.83919028  0.40389099  0.68681547    -0.13400
C1535       C  0.86023321  0.32842098  0.69045741    -0.13800
C1536       C  0.92789708  0.41170742  0.72957591    -0.13800
C1537       C  0.84304694  0.40755717  0.73094034    -0.13300
C1538       C  0.86390411  0.33233979  0.73151945    -0.13700
C1539       C  0.74424677  0.50286905  0.66744126     0.49000
H1540       H  0.74086269  0.49740774  0.63341939     0.00000
C1541       C  0.74723981  0.50715195  0.74727001     0.49100
H1542       H  0.74641703  0.50522413  0.78133690     0.00000
C1543       C  0.78191094  0.55095100  0.68692134    -0.13700
C1544       C  0.69559057  0.49887825  0.68431154    -0.13400
C1545       C  0.75840825  0.46225432  0.68719168    -0.13800
C1546       C  0.78289422  0.55372277  0.73109524    -0.13800
C1547       C  0.69759601  0.50217775  0.72570415    -0.13300
C1548       C  0.76051201  0.46458445  0.72855031    -0.13700
N1549       N  0.81655365  0.58068881  0.65944069     0.00100
C1550       C  0.82403452  0.56283513  0.62209246     0.02700
C1551       C  0.87197328  0.58035169  0.61440284    -0.20200
C1552       C  0.89403098  0.61456866  0.64507096    -0.20400
C1553       C  0.85839319  0.61628498  0.67008405     0.02600
H1554       H  0.88765348  0.57534120  0.58624905     0.16000
H1555       H  0.93019783  0.30671681  0.64572496     0.16400
N1556       N  0.80990607  0.42218428  0.65723785     0.00100
C1557       C  0.80835206  0.41296402  0.61522913     0.02700
C1558       C  0.76139398  0.39668824  0.59822938    -0.20200
C1559       C  0.73375432  0.40231583  0.62916289    -0.20400
C1560       C  0.76485318  0.42172077  0.66369396     0.02600
H1561       H  0.74967505  0.39186429  0.56536227     0.16400
H1562       H  0.69719726  0.40227201  0.62434889     0.16400
N1563       N  0.81618065  0.42718533  0.76010131     0.00100
C1564       C  0.81920640  0.42104305  0.80202544     0.02700
C1565       C  0.77443720  0.40778243  0.81760383    -0.20200
C1566       C  0.74325124  0.41106309  0.78579069    -0.20400
C1567       C  0.77024366  0.42678572  0.75240458     0.02600
H1568       H  0.76679473  0.40547086  0.85011476     0.16400
H1569       H  0.70723235  0.41155215  0.78908424     0.16400
N1570       N  0.81514224  0.59018929  0.76198644     0.00100
C1571       C  0.81913445  0.58146914  0.80332547     0.02700
C1572       C  0.86589353  0.60066435  0.81991143    -0.20200
C1573       C  0.89139878  0.62637388  0.78953879    -0.20400
C1574       C  0.85882267  0.62298059  0.75614503     0.02600
H1575       H  0.87806311  0.60188267  0.85237478     0.16400
H1576       H  0.92815656  0.31692536  0.79299407     0.16400
C1577       C  0.88776478  0.47453010  0.85680597    -0.09700
C1578       C  0.85949865  0.44932473  0.82992878    -0.11200
C1579       C  0.78103140  0.57569089  0.83125687    -0.09700
C1580       C  0.75339346  0.57391216  0.85802767    -0.11200
C1581       C  0.96312973  0.38102156  0.85451861    -0.09700
C1582       C  0.96279630  0.40731132  0.82639038    -0.11200
C1583       C  0.84334025  0.44321266  0.58936544    -0.09700
C1584       C  0.86337259  0.47138974  0.56422570    -0.11200
C1585       C  0.93753657  0.37645719  0.59045985    -0.09700
C1586       C  0.93184521  0.67669718  0.56500643    -0.11200
C1587       C  0.78820869  0.55405857  0.58768149    -0.09700
C1588       C  0.75779352  0.55403760  0.56091664    -0.11200
C1589       C  0.76293735  0.39012190  0.32879497    -0.09700
C1590       C  0.74038177  0.36638571  0.35545604    -0.11200
C1591       C  0.81064068  0.61966874  0.32721298    -0.09700
C1592       C  0.83974108  0.61919423  0.35545035    -0.11200
C1593       C  0.99245630  0.49686230  0.35854431    -0.09700
C1594       C  0.98440731  0.46453090  0.33221367    -0.11200
C1595       C  0.80951392  0.60740819  0.09235423    -0.09700
C1596       C  0.83987694  0.60693352  0.06847208    -0.11200
C1597       C  0.95688267  0.45137964  0.06022381    -0.09700
C1598       C  0.95993485  0.42512557  0.08745594    -0.11200
C1599       C  0.71146945  0.35125685  0.06184984    -0.09700
C1600       C  0.74311934  0.37358053  0.08772992    -0.11200
N1601       N  0.77188740  0.74820523  0.15656954     0.00100
C1602       C  0.77683502  0.74453476  0.11476511     0.02700
C1603       C  0.79138928  0.78929881  0.09847223    -0.20200
C1604       C  0.78833696  0.82060237  0.12926024    -0.20400
C1605       C  0.77281306  0.79399730  0.16312640     0.02600
H1606       H  0.79275637  0.79685214  0.06575304     0.16400
H1607       H  0.78743764  0.85623479  0.12464600     0.16400
C1608       C  0.81900053  0.68780903  0.16931312     0.49000
H1609       H  0.82060064  0.68748671  0.13518141     0.00000
C1610       C  0.82226712  0.69195924  0.24929565     0.49100
H1611       H  0.82621182  0.69453406  0.28357648     0.00000
C1612       C  0.87027975  0.70302173  0.19088249    -0.13700
C1613       C  0.79386387  0.72298743  0.18650315    -0.13400
C1614       C  0.79100313  0.97196667  0.18593259    -0.13800
C1615       C  0.87220031  0.70598970  0.23194449    -0.13800
C1616       C  0.79614148  0.72562965  0.23063768    -0.13300
C1617       C  0.79286903  0.97436676  0.22989660    -0.13700
C1618       C  0.70024570  0.82423799  0.24700619     0.49000
H1619       H  0.70796142  0.83053779  0.28085311     0.00000
C1620       C  0.69197207  0.81546011  0.16714414     0.49100
H1621       H  0.69177230  0.81367275  0.13298410     0.00000
C1622       C  0.70169930  0.87052482  0.22553047    -0.13700
C1623       C  0.74005170  0.80862750  0.22794312    -0.13400
C1624       C  0.65130031  0.78566833  0.23137644    -0.13800
C1625       C  0.69849333  0.86652527  0.18410644    -0.13800
C1626       C  0.73576820  0.80415128  0.18661456    -0.13300
C1627       C  0.64704256  0.78059055  0.18711155    -0.13700
N1628       N  0.94626023  0.74224761  0.15971607     0.00100
C1629       C  0.95875925  0.72906104  0.12255526     0.02700
C1630       C  0.94214174  0.67987558  0.11612550    -0.20200
C1631       C  0.91231541  0.66240510  0.14686119    -0.20400
C1632       C  0.91304886  0.70191571  0.17093676     0.02600
H1633       H  0.94503489  0.65958298  0.08890233     0.16400
H1634       H  0.88800030  0.62601445  0.14835246     0.16400
N1635       N  0.76140283  0.93320883  0.15579649     0.00100
C1636       C  0.76592580  0.93537762  0.11363269     0.02700
C1637       C  0.72201329  0.91743914  0.09140861    -0.20200
C1638       C  0.68852871  0.90250732  0.11984196    -0.20400
C1639       C  0.71352533  0.90850347  0.15837207     0.02600
H1640       H  0.71578121  0.91084196  0.05798268     0.16400
H1641       H  0.65140963  0.88014726  0.11264790     0.16400
N1642       N  0.95443534  0.75598527  0.26257006     0.00100
C1643       C  0.97037436  0.75608115  0.30349911     0.02700
C1644       C  0.95077246  0.71177864  0.31963857    -0.20200
C1645       C  0.91843215  0.68410224  0.28949009    -0.20400
C1646       C  0.91814010  0.71299021  0.25681339     0.02600
H1647       H  0.95380264  0.70298964  0.35184098     0.16400
H1648       H  0.89333636  0.64866575  0.29269794     0.16400
N1649       N  0.76392186  0.93933084  0.25709291     0.00100
C1650       C  0.76808692  0.94652132  0.29933624     0.02700
C1651       C  0.72392227  0.93305804  0.31471872    -0.20200
C1652       C  0.69030565  0.91690042  0.28238987    -0.20400
C1653       C  0.71606792  0.91657675  0.24820289     0.02600
H1654       H  0.71767962  0.92948354  0.34650918     0.16400
H1655       H  0.65284072  0.89607435  0.28546888     0.16400
N1656       N  0.77973495  0.75630129  0.25936210     0.00100
C1657       C  0.79029805  0.75872444  0.30152047     0.02700
C1658       C  0.80749390  0.80565705  0.31724520    -0.20200
C1659       C  0.80193065  0.83296028  0.28522060    -0.20400
C1660       C  0.78099744  0.80154557  0.25161577     0.02600
H1661       H  0.81375189  0.81782773  0.34981573     0.16400
H1662       H  0.80312054  0.86984784  0.28850070     0.16400
O1663       O  0.73300573  0.88982696  0.49163517    -0.77300
O1664       O  0.91016334  0.93930832  0.38146814    -0.62000
O1665       O  0.01043630  0.94719497  0.46518866    -1.08600
C1666       C  0.88325028  0.84028464  0.53432118     1.09600
O1667       O  0.85875046  0.94747139  0.42679528    -0.75200
O1668       O  0.88695251  0.95716787  0.51043099    -0.62800
Ni1669     Ni  0.73539288  0.93657688  0.45072065     1.34900
C1670       C  0.92600631  0.97160686  0.53374117     0.88300
O1671       O  0.00507519  0.98975390  0.38908279    -0.75700
O1672       O  0.74443623  0.98387341  0.40928031    -0.86000
C1673       C  0.87111119  0.94618505  0.38956503     0.87900
O1674       O  0.70719399  0.88360584  0.41092252    -0.64200
O1675       O  0.85467227  0.85749573  0.51353085    -0.83500
C1676       C  0.00072134  0.86952500  0.38890738     0.88700
C1677       C  0.71747247  0.00161685  0.38717787     1.10300
H1678       H  0.91247285  0.86565467  0.44260954     0.42100
O1679       O  0.92080775  0.89730430  0.45624340    -1.06200
O1680       O  0.95948710  0.95290031  0.53209584    -0.62800
Ni1681     Ni  0.96997825  0.90140563  0.49915239     1.26300
O1682       O  0.96928733  0.89058565  0.38992452    -0.63000
O1683       O  0.92858311  0.85410167  0.53147987    -0.75300
C1684       C  0.72478191  0.89448673  0.52932361     0.88100
O1685       O  0.68870477  0.90597048  0.53924235    -0.62500
Ni1686     Ni  0.86073464  0.90362440  0.47049980     1.27400
Ni1687     Ni  0.96160660  0.94350637  0.42211715     1.26100
H1688       H  0.68635227  0.97880721  0.47902279     0.42600
O1689       O  0.95559899  0.80316557  0.99084824    -0.77300
O1690       O  0.96274512  0.97504454  0.88162891    -0.62000
O1691       O  0.99081276  0.89828438  0.96609093    -1.08600
C1692       C  0.87440727  0.94180350  0.03774190     1.09600
O1693       O  0.96279550  0.70119294  0.92587152    -0.75200
O1694       O  0.99056301  0.68678562  0.00598181    -0.62800
Ni1695     Ni  0.99918774  0.83785120  0.95198178     1.34900
C1696       C  0.67125098  0.99476416  0.03193529     0.88300
O1697       O  0.69521521  0.93156132  0.88995896    -0.75700
O1698       O  0.71203089  0.86674933  0.91238370    -0.86000
C1699       C  0.96262638  0.68413911  0.88901341     0.87900
O1700       O  0.94713202  0.81582656  0.90989350    -0.64200
O1701       O  0.89294847  0.98187259  0.02108301    -0.83500
C1702       C  0.92312190  0.83683384  0.88829815     0.88700
C1703       C  0.71916327  0.90243686  0.88925653     1.10300
H1704       H  0.89606572  0.92478748  0.94176551     0.42100
O1705       O  0.92729785  0.94063008  0.95625645    -1.06200
O1706       O  0.98338283  0.94998034  0.03431039    -0.62800
Ni1707     Ni  0.93831271  0.89998285  0.99829804     1.26300
O1708       O  0.93100141  0.88205494  0.89093038    -0.63000
O1709       O  0.88557135  0.90422726  0.02926152    -0.75300
C1710       C  0.95440404  0.81675894  0.02824491     0.88100
O1711       O  0.95055786  0.85739352  0.03780223    -0.62500
Ni1712     Ni  0.92976593  0.00446505  0.97347777     1.27400
Ni1713     Ni  0.97736617  0.93587318  0.92269594     1.26100
H1714       H  0.68759948  0.91756626  0.98069892     0.42600
N1715       N  0.95733171  0.76649115  0.65509307     0.00100
C1716       C  0.94968148  0.75634037  0.61275480     0.02700
C1717       C  0.96688458  0.79688771  0.59098636    -0.20200
C1718       C  0.98543942  0.83415781  0.61967701    -0.20400
C1719       C  0.98339838  0.81445984  0.65817547     0.02600
H1720       H  0.97023778  0.79821175  0.55774128     0.16400
H1721       H  0.67451059  0.86990240  0.61278782     0.16400
N1722       N  0.96663848  0.77832695  0.75685890     0.00100
C1723       C  0.96688952  0.77981714  0.79920198     0.02700
C1724       C  0.65015112  0.82591299  0.81523866    -0.20200
C1725       C  0.66027717  0.85512108  0.78297393    -0.20400
C1726       C  0.65478721  0.82483424  0.74828529     0.02600
H1727       H  0.65951387  0.83629493  0.84718750     0.16400
H1728       H  0.68150099  0.89297623  0.78605110     0.16400
C1729       C  0.87192677  0.70996674  0.66915836     0.49000
H1730       H  0.86685188  0.70362202  0.63505181     0.00000
C1731       C  0.88003502  0.71785483  0.74911591     0.49100
H1732       H  0.88268501  0.71853460  0.78331652     0.00000
C1733       C  0.92359300  0.74066133  0.68551001    -0.13700
C1734       C  0.83919659  0.73722255  0.68681409    -0.13400
C1735       C  0.86023407  0.66174932  0.69045663    -0.13800
C1736       C  0.92790167  0.74503422  0.72957496    -0.13800
C1737       C  0.84305264  0.74088842  0.73093889    -0.13300
C1738       C  0.86390531  0.66566858  0.73151872    -0.13700
C1739       C  0.74425233  0.83620237  0.66743901     0.49000
H1740       H  0.74086903  0.83074223  0.63341703     0.00000
C1741       C  0.74724413  0.84048373  0.74726775     0.49100
H1742       H  0.74642123  0.83855560  0.78133467     0.00000
C1743       C  0.78191473  0.88428518  0.68691982    -0.13700
C1744       C  0.69559472  0.83220758  0.68430902    -0.13400
C1745       C  0.75841608  0.79558867  0.68718897    -0.13800
C1746       C  0.78289668  0.88705629  0.73109353    -0.13800
C1747       C  0.69759973  0.83550651  0.72570175    -0.13300
C1748       C  0.76051910  0.79791795  0.72854774    -0.13700
N1749       N  0.81655942  0.91402326  0.65944053     0.00100
C1750       C  0.82404322  0.89617000  0.62209319     0.02700
C1751       C  0.87198226  0.91368957  0.61440473    -0.20200
C1752       C  0.89403689  0.94790787  0.64507257    -0.20400
C1753       C  0.85839715  0.94962199  0.67008425     0.02600
H1754       H  0.88766407  0.90868069  0.58625125     0.16000
H1755       H  0.93019465  0.64003612  0.64572491     0.16400
N1756       N  0.80991637  0.75552041  0.65723647     0.00100
C1757       C  0.80836516  0.74630276  0.61522755     0.02700
C1758       C  0.76140808  0.73002721  0.59822561    -0.20200
C1759       C  0.73376624  0.73565285  0.62915789    -0.20400
C1760       C  0.76486280  0.75505629  0.66369061     0.02600
H1761       H  0.74969125  0.72520503  0.56535806     0.16400
H1762       H  0.69720933  0.73560924  0.62434201     0.16400
N1763       N  0.81618690  0.76051801  0.76009925     0.00100
C1764       C  0.81921148  0.75437494  0.80202326     0.02700
C1765       C  0.77444188  0.74111406  0.81760081    -0.20200
C1766       C  0.74325671  0.74439532  0.78578730    -0.20400
C1767       C  0.77025008  0.76011864  0.75240179     0.02600
H1768       H  0.76679865  0.73880204  0.85011157     0.16400
H1769       H  0.70723763  0.74488429  0.78908054     0.16400
N1770       N  0.81514218  0.92352414  0.76198507     0.00100
C1771       C  0.81913363  0.91480346  0.80332401     0.02700
C1772       C  0.86589249  0.93399818  0.81991056    -0.20200
C1773       C  0.89139834  0.95970841  0.78953851    -0.20400
C1774       C  0.85882274  0.95631595  0.75614457     0.02600
H1775       H  0.87806152  0.93521555  0.85237395     0.16400
H1776       H  0.92815497  0.65025258  0.79299472     0.16400
C1777       C  0.88776728  0.80786240  0.85680533    -0.09700
C1778       C  0.85950271  0.78265667  0.82992741    -0.11200
C1779       C  0.78102988  0.90902482  0.83125479    -0.09700
C1780       C  0.75339161  0.90724590  0.85802538    -0.11200
C1781       C  0.96312911  0.71435024  0.85451946    -0.09700
C1782       C  0.96279878  0.74063985  0.82639034    -0.11200
C1783       C  0.84335472  0.77655335  0.58936599    -0.09700
C1784       C  0.86338747  0.80473094  0.56422670    -0.11200
C1785       C  0.93753826  0.70977915  0.59046070    -0.09700
C1786       C  0.93185398  0.01003603  0.56500652    -0.11200
C1787       C  0.78821910  0.88739355  0.58768127    -0.09700
C1788       C  0.75780486  0.88737477  0.56091654    -0.11200
C1789       C  0.76292209  0.72344443  0.32879755    -0.09700
C1790       C  0.74036722  0.69970739  0.35545854    -0.11200
C1791       C  0.81065186  0.95300465  0.32721154    -0.09700
C1792       C  0.83975323  0.95253150  0.35544872    -0.11200
C1793       C  0.99246375  0.83019935  0.35854761    -0.09700
C1794       C  0.98440978  0.79786607  0.33221809    -0.11200
C1795       C  0.80951275  0.94074013  0.09235413    -0.09700
C1796       C  0.83987575  0.94026656  0.06847158    -0.11200
C1797       C  0.95688157  0.78471578  0.06022682    -0.09700
C1798       C  0.95993140  0.75846220  0.08746008    -0.11200
C1799       C  0.71146121  0.68458612  0.06185365    -0.09700
C1800       C  0.74310977  0.70691056  0.08773459    -0.11200
loop_ 
_geom_bond_atom_site_label_1 
_geom_bond_atom_site_label_2 
_geom_bond_distance 
_geom_bond_site_symmetry_2 
_ccdc_geom_bond_type 
N1            C5   1.348       .  A
N1            C2   1.367       .  A
N1           C13   1.473       .  S
C2            C3   1.376       .  A
C2          C200   1.446       .  S
C3            C4   1.359       .  A
C3            H6   1.083       .  S
C4            C5   1.374       .  A
C4            H7   1.071       .  S
C5           C26   1.462       .  S
C8            H9   1.103       .  S
C8           C13   1.558       .  S
C8           C12   1.538       .  S
C8          C414   1.543   1_545  S
C10          H11   1.101       .  S
C10          C16   1.549       .  S
C10          C15   1.533       .  S
C10         C417   1.555   1_545  S
C12          C32   1.453       .  S
C12          C15   1.319       .  D
C13          C16   1.417       .  D
C14          N35   1.479       .  S
C14         C208   1.543       .  S
C14          C17   1.412       .  D
C15          C46   1.476       .  S
C16          N56   1.478       .  S
C17          N49   1.458       .  S
C17         C210   1.555       .  S
C18          H19   1.097       .  S
C18          C24   1.558   1_455  S
C18          C23   1.539       .  S
C18          C22   1.534       .  S
C20          H21   1.099       .  S
C20          C26   1.531       .  S
C20          C25   1.530       .  S
C20          C27   1.571   1_455  S
C22          C53   1.442       .  S
C22          C25   1.330       .  D
C23          C60   1.459       .  S
C23          C26   1.328       .  D
C24        N1242   1.488       .  S
C24          C27   1.422       .  D
C25          C39   1.468       .  S
C27        N1228   1.468       .  S
N28          C32   1.344       .  A
N28          C29   1.354       .  A
N28         C627   1.468       .  S
C29          C30   1.373       .  A
C29         C198   1.438       .  S
C30          C31   1.361   1_545  A
C30          H33   1.069   1_545  S
C31          C32   1.371   1_565  A
C31          H34   1.081       .  S
N35          C39   1.366       .  A
N35          C36   1.373       .  A
C36          C37   1.370       .  A
C36         C195   1.453       .  S
C37          C38   1.360       .  A
C37          H40   1.082       .  S
C38          C39   1.379       .  A
C38          H41   1.081   1_455  S
N42          C46   1.363       .  A
N42          C43   1.371       .  A
N42         C624   1.488       .  S
C43          C44   1.374       .  A
C43         C194   1.447       .  S
C44          C45   1.359       .  A
C44          H47   1.081       .  S
C45          C46   1.373       .  A
C45          H48   1.076   1_545  S
N49          C53   1.354       .  A
N49          C50   1.362       .  A
C50          C51   1.356       .  A
C50         C191   1.450       .  S
C51          C52   1.351       .  A
C51          H54   1.053       .  S
C52          C53   1.374       .  A
C52          H55   1.084   1_455  S
N56          C60   1.350       .  A
N56          C57   1.368       .  A
C57          C58   1.375       .  A
C57         C189   1.446       .  S
C58          C59   1.359       .  A
C58          H61   1.083       .  S
C59          C60   1.376       .  A
C59          H62   1.075       .  S
O63         Ni69   1.919       .  S
O63          C84   1.263       .  A
O64         Ni87   1.907       .  S
O64          C73   1.267       .  A
O65         Ni87   1.907       .  S
O65         Ni81   1.904       .  S
O65        Ni669   1.916       .  S
O65         H688   0.966       .  S
C66         C184   1.446       .  S
C66          O83   1.269       .  A
C66          O75   1.278       .  A
O67         Ni86   1.947       .  S
O67          C73   1.276       .  A
O68         Ni86   1.923       .  S
O68          C70   1.272       .  A
Ni69         O72   1.923       .  S
Ni69         O74   1.916       .  S
Ni69       O1265   1.916       .  S
C70         C186   1.451       .  S
C70          O80   1.274       .  A
O71         Ni87   1.932       .  S
O71         C677   1.278       .  A
O72          C77   1.275       .  A
C73         C192   1.445       .  S
O74        C1276   1.268       .  A
O75         Ni86   1.943       .  S
C76         C193   1.440       .  S
C76          O82   1.268       .  A
C76         O674   1.268       .  A
C77         C390   1.444       .  S
C77        O1271   1.278       .  A
H78          O79   0.966       .  S
O79         Ni87   1.918       .  S
O79         Ni81   1.908       .  S
O79         Ni86   1.912       .  S
O80         Ni81   1.938       .  S
Ni81         O83   1.907       .  S
Ni81        O685   1.907       .  S
O82         Ni87   1.925       .  S
C84         C188   1.429       .  S
C84          O85   1.266       .  A
O85       Ni1281   1.907   1_455  S
H88        O1265   0.966       .  S
O89         Ni95   1.915       .  S
O89         C110   1.263   1_556  A
O90        Ni113   1.897       .  S
O90         C299   1.264       .  A
O91         Ni95   1.916       .  S
O91        Ni113   1.906       .  S
O91        Ni107   1.921       .  S
O91         H714   0.966       .  S
C92         C196   1.450       .  S
C92         O109   1.276       .  A
C92         O101   1.276       .  A
O93        Ni512   1.943       .  S
O93          C99   1.274       .  A
O94        Ni512   1.924   1_554  S
O94        C1096   1.271   1_545  A
Ni95        O100   1.909       .  S
Ni95        O698   1.926       .  S
C96         C399   1.445       .  S
C96        O1494   1.271   1_455  A
C96        O1306   1.268   1_455  A
O97       Ni1313   1.921   1_455  S
O97         C103   1.272       .  A
O98       Ni1295   1.926   1_455  S
O98         C103   1.273       .  A
C99         C181   1.440       .  S
C99         O490   1.264   1_545  A
O100        C102   1.268       .  A
O101       Ni112   1.937   1_554  S
C102        C177   1.442       .  S
C102        O108   1.273       .  A
C103        C180   1.442       .  S
H104        O105   0.966       .  S
O105       Ni113   1.913       .  S
O105       Ni107   1.912       .  S
O105       Ni112   1.918       .  S
O106       Ni107   1.926   1_554  S
O106        C696   1.268       .  A
Ni107       O111   1.909   1_556  S
Ni107       O109   1.926   1_556  S
O108       Ni113   1.935       .  S
C110        C197   1.430       .  S
C110        O111   1.267       .  A
Ni112       O293   1.943       .  S
Ni112       O294   1.924   1_556  S
Ni113       O697   1.921       .  S
H114       O1291   0.966   1_455  S
N115        C119   1.367       .  A
N115        C116   1.376       .  A
N115        C133   1.480       .  S
C116        C117   1.367       .  A
C116        C185   1.453       .  S
C117        C118   1.358       .  A
C117        H120   1.081       .  S
C118        C119   1.380       .  A
C118        H721   1.082       .  S
C119        C744   1.467       .  S
H121       C1318   1.082   1_455  S
N122        C123   1.362       .  A
N122        C726   1.352       .  A
N122        C136   1.459       .  S
C123        C724   1.357       .  A
C123        C182   1.446       .  S
C124        C125   1.353       .  A
C124       C1323   1.357       .  A
C124        H127   1.058       .  S
C125        C126   1.376       .  A
C125        H128   1.083   1_655  S
C126       N1322   1.352       .  A
C126        C147   1.440   1_655  S
C129        H130   1.101       .  S
C129        C135   1.539   1_545  S
C129        C134   1.557       .  S
C129        C133   1.542       .  S
C131        H132   1.098       .  S
C131        C137   1.549       .  S
C131        C136   1.555       .  S
C131        C138   1.531   1_545  S
C133        C136   1.415       .  D
C134        N156   1.471       .  S
C134        C137   1.416       .  D
C135        C553   1.455       .  S
C135        C138   1.318       .  D
C137        N163   1.479       .  S
C138        C574   1.476       .  S
C139        H140   1.096       .  S
C139        C145   1.528       .  S
C139        C144   1.528       .  S
C139        C143   1.570       .  S
C141        H142   1.101       .  S
C141        C147   1.536       .  S
C141        C146   1.556       .  S
C141        C148   1.543       .  S
C143        N149   1.470       .  S
C143        C146   1.420       .  D
C144       C1319   1.467   1_455  S
C144        C147   1.330       .  D
C145        C160   1.462       .  S
C145        C148   1.328       .  D
C146        N170   1.483       .  S
C148        C167   1.461       .  S
N149        C153   1.348       .  A
N149        C150   1.356       .  A
C150        C151   1.373       .  A
C150        C187   1.437       .  S
C151        C152   1.360       .  A
C151        H154   1.068       .  S
C152        C153   1.370       .  A
C152        H355   1.081       .  S
C153        C335   1.455       .  S
H155        C552   1.081       .  S
N156        C160   1.346       .  A
N156        C157   1.367       .  A
C157        C158   1.376       .  A
C157        C183   1.447       .  S
C158        C159   1.361       .  A
C158        H161   1.083       .  S
C159        C160   1.377       .  A
C159        H162   1.074       .  S
N163        C167   1.352       .  A
N163        C164   1.368       .  A
C164        C165   1.374       .  A
C164        C178   1.445       .  S
C165        C166   1.358       .  A
C165        H168   1.083       .  S
C166        C167   1.375       .  A
C166        H169   1.073       .  S
N170        C174   1.359       .  A
N170        C171   1.368       .  A
C171        C172   1.370       .  A
C171        C179   1.447       .  S
C172        C173   1.361       .  A
C172        H175   1.080       .  S
C173        C174   1.374       .  A
C173        H376   1.077       .  S
C174        C338   1.476       .  S
H176        C573   1.077       .  S
C177        C178   1.210       .  T
C179        C180   1.210       .  T
C181        C182   1.209       .  T
C183        C184   1.212       .  T
C185        C586   1.215       .  T
C186        C385   1.215       .  T
C187        C188   1.202       .  T
C189        C190   1.211       .  T
C190        C477   1.444       .  S
C191        C192   1.212       .  T
C193        C194   1.209       .  T
C195        C196   1.215       .  T
C197        C198   1.203       .  T
C199        C496   1.445   1_545  S
C199        C200   1.211       .  T
N201        C205   1.348       .  A
N201        C202   1.367       .  A
N201        C213   1.473       .  S
C202        C203   1.376       .  A
C202        C400   1.446       .  S
C203        C204   1.359       .  A
C203        H206   1.083       .  S
C204        C205   1.374       .  A
C204        H207   1.071       .  S
C205        C226   1.462       .  S
C208        H209   1.103       .  S
C208        C213   1.558       .  S
C208        C212   1.538       .  S
C210        H211   1.101       .  S
C210        C216   1.549       .  S
C210        C215   1.533       .  S
C212        C232   1.453       .  S
C212        C215   1.319       .  D
C213        C216   1.417       .  D
C214        N235   1.479       .  S
C214        C408   1.543       .  S
C214        C217   1.412       .  D
C215        C246   1.476       .  S
C216        N256   1.478       .  S
C217        N249   1.458       .  S
C217        C410   1.555       .  S
C218        H219   1.097       .  S
C218        C224   1.558   1_455  S
C218        C223   1.539       .  S
C218        C222   1.534       .  S
C220        H221   1.099       .  S
C220        C226   1.531       .  S
C220        C225   1.530       .  S
C220        C227   1.571   1_455  S
C222        C253   1.442       .  S
C222        C225   1.330       .  D
C223        C260   1.459       .  S
C223        C226   1.328       .  D
C224       N1442   1.488       .  S
C224        C227   1.422       .  D
C225        C239   1.468       .  S
C227       N1428   1.468       .  S
N228        C232   1.344       .  A
N228        C229   1.354       .  A
N228        C827   1.468       .  S
C229        C230   1.373       .  A
C229        C398   1.438       .  S
C230        C231   1.361       .  A
C230        H233   1.069       .  S
C231        C232   1.371       .  A
C231        H234   1.081       .  S
N235        C239   1.366       .  A
N235        C236   1.373       .  A
C236        C237   1.370       .  A
C236        C395   1.453       .  S
C237        C238   1.360       .  A
C237        H240   1.082       .  S
C238        C239   1.379       .  A
C238        H241   1.081   1_455  S
N242        C246   1.363       .  A
N242        C243   1.371       .  A
N242        C824   1.488       .  S
C243        C244   1.374       .  A
C243        C394   1.447       .  S
C244        C245   1.359       .  A
C244        H247   1.081       .  S
C245        C246   1.373       .  A
C245        H248   1.076       .  S
N249        C253   1.354       .  A
N249        C250   1.362       .  A
C250        C251   1.356       .  A
C250        C391   1.450       .  S
C251        C252   1.351       .  A
C251        H254   1.053       .  S
C252        C253   1.374       .  A
C252        H255   1.084   1_455  S
N256        C260   1.350       .  A
N256        C257   1.368       .  A
C257        C258   1.375       .  A
C257        C389   1.446       .  S
C258        C259   1.359       .  A
C258        H261   1.083       .  S
C259        C260   1.376       .  A
C259        H262   1.075       .  S
O263       Ni269   1.919       .  S
O263        C284   1.263       .  A
O264       Ni287   1.907       .  S
O264        C273   1.267       .  A
O265       Ni869   1.916       .  S
O265       Ni287   1.907       .  S
O265       Ni281   1.904       .  S
O265        H888   0.966       .  S
C266        C384   1.446       .  S
C266        O283   1.269       .  A
C266        O275   1.278       .  A
O267       Ni286   1.947       .  S
O267        C273   1.276       .  A
O268       Ni286   1.923       .  S
O268        C270   1.272       .  A
Ni269       O272   1.923       .  S
Ni269       O274   1.916       .  S
Ni269      O1465   1.916       .  S
C270        C386   1.451       .  S
C270        O280   1.274       .  A
O271       Ni287   1.932       .  S
O271        C877   1.278       .  A
O272        C277   1.275       .  A
C273        C392   1.445       .  S
O274       C1476   1.268       .  A
O275       Ni286   1.943       .  S
C276        C393   1.440       .  S
C276        O874   1.268       .  A
C276        O282   1.268       .  A
C277        C590   1.444       .  S
C277       O1471   1.278       .  A
H278        O279   0.966       .  S
O279       Ni287   1.918       .  S
O279       Ni281   1.908       .  S
O279       Ni286   1.912       .  S
O280       Ni281   1.938       .  S
Ni281       O885   1.907       .  S
Ni281       O283   1.907       .  S
O282       Ni287   1.925       .  S
C284        C388   1.429       .  S
C284        O285   1.266       .  A
O285      Ni1481   1.907   1_455  S
H288       O1465   0.966       .  S
O289       Ni295   1.915       .  S
O289        C310   1.263   1_556  A
O290       Ni313   1.897       .  S
O290        C499   1.264       .  A
O291       Ni295   1.916       .  S
O291       Ni313   1.906       .  S
O291       Ni307   1.921       .  S
O291        H914   0.966       .  S
C292        C396   1.450       .  S
C292        O309   1.276       .  A
C292        O301   1.276       .  A
O293        C299   1.274       .  A
O294        C696   1.271       .  A
Ni295       O898   1.926       .  S
Ni295       O300   1.909       .  S
C296        C599   1.445       .  S
C296       O1694   1.271   1_455  A
C296       O1506   1.268   1_455  A
O297      Ni1513   1.921   1_455  S
O297        C303   1.272       .  A
O298      Ni1495   1.926   1_455  S
O298        C303   1.273       .  A
C299        C381   1.440       .  S
O300        C302   1.268       .  A
O301       Ni312   1.937   1_554  S
C302        C377   1.442       .  S
C302        O308   1.273       .  A
C303        C380   1.442       .  S
H304        O305   0.966       .  S
O305       Ni313   1.913       .  S
O305       Ni307   1.912       .  S
O305       Ni312   1.918       .  S
O306       Ni307   1.926   1_554  S
O306        C896   1.268       .  A
Ni307       O311   1.909   1_556  S
Ni307       O309   1.926   1_556  S
O308       Ni313   1.935       .  S
C310        C397   1.430       .  S
C310        O311   1.267       .  A
Ni312       O493   1.943       .  S
Ni312       O494   1.924   1_556  S
Ni313       O897   1.921       .  S
H314       O1491   0.966   1_455  S
N315        C319   1.367       .  A
N315        C316   1.376       .  A
N315        C333   1.480       .  S
C316        C317   1.367       .  A
C316        C385   1.453       .  S
C317        C318   1.358       .  A
C317        H320   1.081       .  S
C318        C319   1.380       .  A
C318        H921   1.082       .  S
C319        C944   1.467       .  S
H321       C1518   1.082   1_455  S
N322        C926   1.352       .  A
N322        C323   1.362       .  A
N322        C336   1.459       .  S
C323        C924   1.357       .  A
C323        C382   1.446       .  S
C324       C1523   1.357       .  A
C324        C325   1.353       .  A
C324        H327   1.058       .  S
C325        C326   1.376       .  A
C325        H328   1.083   1_655  S
C326       N1522   1.352       .  A
C326        C347   1.440   1_655  S
C329        H330   1.101       .  S
C329        C335   1.539       .  S
C329        C334   1.557       .  S
C329        C333   1.542       .  S
C331        H332   1.098       .  S
C331        C337   1.549       .  S
C331        C336   1.555       .  S
C331        C338   1.531       .  S
C333        C336   1.415       .  D
C334        N356   1.471       .  S
C334        C337   1.416       .  D
C335        C338   1.318       .  D
C337        N363   1.479       .  S
C339        H340   1.096       .  S
C339        C345   1.528       .  S
C339        C344   1.528       .  S
C339        C343   1.570       .  S
C341        H342   1.101       .  S
C341        C347   1.536       .  S
C341        C346   1.556       .  S
C341        C348   1.543       .  S
C343        N349   1.470       .  S
C343        C346   1.420       .  D
C344       C1519   1.467   1_455  S
C344        C347   1.330       .  D
C345        C360   1.462       .  S
C345        C348   1.328       .  D
C346        N370   1.483       .  S
C348        C367   1.461       .  S
N349        C353   1.348       .  A
N349        C350   1.356       .  A
C350        C351   1.373       .  A
C350        C387   1.437       .  S
C351        C352   1.360       .  A
C351        H354   1.068       .  S
C352        C353   1.370       .  A
C352        H555   1.081       .  S
C353        C535   1.455       .  S
N356        C360   1.346       .  A
N356        C357   1.367       .  A
C357        C358   1.376       .  A
C357        C383   1.447       .  S
C358        C359   1.361       .  A
C358        H361   1.083       .  S
C359        C360   1.377       .  A
C359        H362   1.074       .  S
N363        C367   1.352       .  A
N363        C364   1.368       .  A
C364        C365   1.374       .  A
C364        C378   1.445       .  S
C365        C366   1.358       .  A
C365        H368   1.083       .  S
C366        C367   1.375       .  A
C366        H369   1.073       .  S
N370        C374   1.359       .  A
N370        C371   1.368       .  A
C371        C372   1.370       .  A
C371        C379   1.447       .  S
C372        C373   1.361       .  A
C372        H375   1.080       .  S
C373        C374   1.374       .  A
C373        H576   1.077       .  S
C374        C538   1.476       .  S
C377        C378   1.210       .  T
C379        C380   1.210       .  T
C381        C382   1.209       .  T
C383        C384   1.212       .  T
C386        C585   1.215       .  T
C387        C388   1.202       .  T
C389        C390   1.211       .  T
C391        C392   1.212       .  T
C393        C394   1.209       .  T
C395        C396   1.215       .  T
C397        C398   1.203       .  T
C399        C400   1.211       .  T
N401        C405   1.348       .  A
N401        C402   1.367       .  A
N401        C413   1.473       .  S
C402        C403   1.376       .  A
C402        C600   1.446       .  S
C403        C404   1.359       .  A
C403        H406   1.083       .  S
C404        C405   1.374       .  A
C404        H407   1.071       .  S
C405        C426   1.462       .  S
C408        H409   1.103       .  S
C408        C413   1.558       .  S
C408        C412   1.538       .  S
C410        H411   1.101       .  S
C410        C416   1.549       .  S
C410        C415   1.533       .  S
C412        C432   1.453       .  S
C412        C415   1.319       .  D
C413        C416   1.417       .  D
C414        N435   1.479       .  S
C414        C417   1.412       .  D
C415        C446   1.476       .  S
C416        N456   1.478       .  S
C417        N449   1.458       .  S
C418        H419   1.097       .  S
C418        C424   1.558   1_455  S
C418        C423   1.539       .  S
C418        C422   1.534       .  S
C420        H421   1.099       .  S
C420        C426   1.531       .  S
C420        C425   1.530       .  S
C420        C427   1.571   1_455  S
C422        C453   1.442       .  S
C422        C425   1.330       .  D
C423        C460   1.459       .  S
C423        C426   1.328       .  D
C424       N1642   1.488       .  S
C424        C427   1.422       .  D
C425        C439   1.468       .  S
C427       N1628   1.468       .  S
N428        C432   1.344       .  A
N428        C429   1.354       .  A
N428       C1027   1.468       .  S
C429        C430   1.373       .  A
C429        C598   1.438       .  S
C430        C431   1.361       .  A
C430        H433   1.069       .  S
C431        C432   1.371       .  A
C431        H434   1.081       .  S
N435        C439   1.366       .  A
N435        C436   1.373       .  A
C436        C437   1.370       .  A
C436        C595   1.453       .  S
C437        C438   1.360       .  A
C437        H440   1.082       .  S
C438        C439   1.379       .  A
C438        H441   1.081   1_455  S
N442        C446   1.363       .  A
N442        C443   1.371       .  A
N442       C1024   1.488       .  S
C443        C444   1.374       .  A
C443        C594   1.447       .  S
C444        C445   1.359       .  A
C444        H447   1.081       .  S
C445        C446   1.373       .  A
C445        H448   1.076       .  S
N449        C453   1.354       .  A
N449        C450   1.362       .  A
C450        C451   1.356       .  A
C450        C591   1.450       .  S
C451        C452   1.351       .  A
C451        H454   1.053       .  S
C452        C453   1.374       .  A
C452        H455   1.084   1_455  S
N456        C460   1.350       .  A
N456        C457   1.368       .  A
C457        C458   1.375       .  A
C457        C589   1.446       .  S
C458        C459   1.359       .  A
C458        H461   1.083       .  S
C459        C460   1.376       .  A
C459        H462   1.075       .  S
O463       Ni469   1.919       .  S
O463        C484   1.263       .  A
O464       Ni487   1.907       .  S
O464        C473   1.267       .  A
O465      Ni1069   1.916       .  S
O465       Ni487   1.907       .  S
O465       Ni481   1.904       .  S
O465       H1088   0.966       .  S
C466        C584   1.446       .  S
C466        O483   1.269       .  A
C466        O475   1.278       .  A
O467       Ni486   1.947       .  S
O467        C473   1.276       .  A
O468       Ni486   1.923       .  S
O468        C470   1.272       .  A
Ni469       O472   1.923       .  S
Ni469       O474   1.916       .  S
Ni469      O1665   1.916       .  S
C470        C586   1.451   1_565  S
C470        O480   1.274       .  A
O471       Ni487   1.932       .  S
O471       C1077   1.278   1_565  A
O472        C477   1.275   1_565  A
C473        C592   1.445       .  S
O474       C1676   1.268       .  A
O475       Ni486   1.943       .  S
C476        C593   1.440       .  S
C476       O1074   1.268       .  A
C476        O482   1.268       .  A
C477       O1671   1.278   1_545  A
H478        O479   0.966       .  S
O479       Ni487   1.918       .  S
O479       Ni481   1.908       .  S
O479       Ni486   1.912       .  S
O480       Ni481   1.938       .  S
Ni481      O1085   1.907       .  S
Ni481       O483   1.907       .  S
O482       Ni487   1.925       .  S
C484        C588   1.429       .  S
C484        O485   1.266       .  A
O485      Ni1681   1.907   1_455  S
H488       O1665   0.966       .  S
O489       Ni495   1.915       .  S
O489        C510   1.263   1_556  A
O490       Ni513   1.897       .  S
O491       Ni495   1.916       .  S
O491       Ni513   1.906       .  S
O491       Ni507   1.921       .  S
O491       H1114   0.966       .  S
C492        C596   1.450       .  S
C492        O509   1.276       .  A
C492        O501   1.276       .  A
O493        C499   1.274       .  A
O494        C896   1.271       .  A
Ni495      O1098   1.926       .  S
Ni495       O500   1.909       .  S
C496       O1294   1.271   1_465  A
C496       O1706   1.268   1_455  A
O497      Ni1713   1.921   1_455  S
O497        C503   1.272       .  A
O498      Ni1695   1.926   1_455  S
O498        C503   1.273       .  A
C499        C581   1.440       .  S
O500        C502   1.268       .  A
O501       Ni512   1.937   1_564  S
C502        C577   1.442       .  S
C502        O508   1.273       .  A
C503        C580   1.442       .  S
H504        O505   0.966       .  S
O505       Ni513   1.913       .  S
O505       Ni507   1.912       .  S
O505       Ni512   1.918   1_565  S
O506       Ni507   1.926   1_554  S
O506       C1096   1.268       .  A
Ni507       O511   1.909   1_556  S
Ni507       O509   1.926   1_556  S
O508       Ni513   1.935       .  S
C510        C597   1.430       .  S
C510        O511   1.267       .  A
Ni513      O1097   1.921       .  S
H514       O1691   0.966   1_455  S
N515        C519   1.367       .  A
N515        C516   1.376       .  A
N515        C533   1.480       .  S
C516        C517   1.367       .  A
C516        C585   1.453       .  S
C517        C518   1.358       .  A
C517        H520   1.081       .  S
C518        C519   1.380       .  A
C518       H1121   1.082       .  S
C519       C1144   1.467       .  S
H521       C1718   1.082   1_455  S
N522       C1126   1.352       .  A
N522        C523   1.362       .  A
N522        C536   1.459       .  S
C523       C1124   1.357       .  A
C523        C582   1.446       .  S
C524       C1723   1.357       .  A
C524        C525   1.353       .  A
C524        H527   1.058       .  S
C525        C526   1.376       .  A
C525        H528   1.083   1_655  S
C526       N1722   1.352       .  A
C526        C547   1.440   1_655  S
C529        H530   1.101       .  S
C529        C535   1.539       .  S
C529        C534   1.557       .  S
C529        C533   1.542       .  S
C531        H532   1.098       .  S
C531        C537   1.549       .  S
C531        C536   1.555       .  S
C531        C538   1.531       .  S
C533        C536   1.415       .  D
C534        N556   1.471       .  S
C534        C537   1.416       .  D
C535        C538   1.318       .  D
C537        N563   1.479       .  S
C539        H540   1.096       .  S
C539        C545   1.528       .  S
C539        C544   1.528       .  S
C539        C543   1.570       .  S
C541        H542   1.101       .  S
C541        C547   1.536       .  S
C541        C546   1.556       .  S
C541        C548   1.543       .  S
C543        N549   1.470       .  S
C543        C546   1.420       .  D
C544       C1719   1.467   1_455  S
C544        C547   1.330       .  D
C545        C560   1.462       .  S
C545        C548   1.328       .  D
C546        N570   1.483       .  S
C548        C567   1.461       .  S
N549        C553   1.348       .  A
N549        C550   1.356       .  A
C550        C551   1.373       .  A
C550        C587   1.437       .  S
C551        C552   1.360       .  A
C551        H554   1.068       .  S
C552        C553   1.370       .  A
N556        C560   1.346       .  A
N556        C557   1.367       .  A
C557        C558   1.376       .  A
C557        C583   1.447       .  S
C558        C559   1.361       .  A
C558        H561   1.083       .  S
C559        C560   1.377       .  A
C559        H562   1.074       .  S
N563        C567   1.352       .  A
N563        C564   1.368       .  A
C564        C565   1.374       .  A
C564        C578   1.445       .  S
C565        C566   1.358       .  A
C565        H568   1.083       .  S
C566        C567   1.375       .  A
C566        H569   1.073       .  S
N570        C574   1.359       .  A
N570        C571   1.368       .  A
C571        C572   1.370       .  A
C571        C579   1.447       .  S
C572        C573   1.361       .  A
C572        H575   1.080       .  S
C573        C574   1.374       .  A
C577        C578   1.210       .  T
C579        C580   1.210       .  T
C581        C582   1.209       .  T
C583        C584   1.212       .  T
C587        C588   1.202       .  T
C589        C590   1.211       .  T
C591        C592   1.212       .  T
C593        C594   1.209       .  T
C595        C596   1.215       .  T
C597        C598   1.203       .  T
C599        C600   1.211       .  T
N601        C605   1.348       .  A
N601        C602   1.367       .  A
N601        C613   1.473       .  S
C602        C603   1.376       .  A
C602        C800   1.446       .  S
C603        C604   1.359       .  A
C603        H606   1.083       .  S
C604        C605   1.374       .  A
C604        H607   1.071       .  S
C605        C626   1.462       .  S
C608        H609   1.103       .  S
C608       C1014   1.543   1_545  S
C608        C613   1.558       .  S
C608        C612   1.538       .  S
C610        H611   1.101       .  S
C610        C616   1.549       .  S
C610        C615   1.533       .  S
C610       C1017   1.555   1_545  S
C612        C632   1.453       .  S
C612        C615   1.319       .  D
C613        C616   1.417       .  D
C614        N635   1.479       .  S
C614        C808   1.543       .  S
C614        C617   1.412       .  D
C615        C646   1.476       .  S
C616        N656   1.478       .  S
C617        N649   1.458       .  S
C617        C810   1.555       .  S
C618        H619   1.097       .  S
C618        C624   1.558       .  S
C618        C623   1.539       .  S
C618        C622   1.534       .  S
C620        H621   1.099       .  S
C620        C626   1.531       .  S
C620        C625   1.530       .  S
C620        C627   1.571       .  S
C622        C653   1.442       .  S
C622        C625   1.330       .  D
C623        C660   1.459       .  S
C623        C626   1.328       .  D
C624        C627   1.422       .  D
C625        C639   1.468       .  S
N628        C632   1.344       .  A
N628        C629   1.354       .  A
N628       C1227   1.468       .  S
C629        C630   1.373       .  A
C629        C798   1.438       .  S
C630        C631   1.361   1_545  A
C630        H633   1.069   1_545  S
C631        C632   1.371   1_565  A
C631        H634   1.081       .  S
N635        C639   1.366       .  A
N635        C636   1.373       .  A
C636        C637   1.370       .  A
C636        C795   1.453       .  S
C637        C638   1.360       .  A
C637        H640   1.082       .  S
C638        C639   1.379       .  A
C638        H641   1.081       .  S
N642        C646   1.363       .  A
N642        C643   1.371       .  A
N642       C1224   1.488       .  S
C643        C644   1.374       .  A
C643        C794   1.447       .  S
C644        C645   1.359       .  A
C644        H647   1.081       .  S
C645        C646   1.373       .  A
C645        H648   1.076   1_545  S
N649        C653   1.354       .  A
N649        C650   1.362       .  A
C650        C651   1.356       .  A
C650        C791   1.450       .  S
C651        C652   1.351       .  A
C651        H654   1.053       .  S
C652        C653   1.374       .  A
C652        H655   1.084       .  S
N656        C660   1.350       .  A
N656        C657   1.368       .  A
C657        C658   1.375       .  A
C657        C789   1.446       .  S
C658        C659   1.359       .  A
C658        H661   1.083       .  S
C659        C660   1.376       .  A
C659        H662   1.075       .  S
O663       Ni669   1.919       .  S
O663        C684   1.263       .  A
O664       Ni687   1.907       .  S
O664        C673   1.267       .  A
O665      Ni1269   1.916       .  S
O665       Ni687   1.907       .  S
O665       Ni681   1.904       .  S
O665       H1288   0.966       .  S
C666        C784   1.446       .  S
C666        O683   1.269       .  A
C666        O675   1.278       .  A
O667       Ni686   1.947       .  S
O667        C673   1.276       .  A
O668       Ni686   1.923       .  S
O668        C670   1.272       .  A
Ni669       O672   1.923       .  S
Ni669       O674   1.916       .  S
C670        C786   1.451       .  S
C670        O680   1.274       .  A
O671       Ni687   1.932       .  S
O671       C1277   1.278       .  A
O672        C677   1.275       .  A
C673        C792   1.445       .  S
O675       Ni686   1.943       .  S
C676        C793   1.440       .  S
C676       O1274   1.268       .  A
C676        O682   1.268       .  A
C677        C990   1.444       .  S
H678        O679   0.966       .  S
O679       Ni687   1.918       .  S
O679       Ni681   1.908       .  S
O679       Ni686   1.912       .  S
O680       Ni681   1.938       .  S
Ni681      O1285   1.907       .  S
Ni681       O683   1.907       .  S
O682       Ni687   1.925       .  S
C684        C788   1.429       .  S
C684        O685   1.266       .  A
O689       Ni695   1.915       .  S
O689        C710   1.263   1_556  A
O690       Ni713   1.897       .  S
O690        C899   1.264       .  A
O691       Ni695   1.916       .  S
O691       Ni713   1.906       .  S
O691       Ni707   1.921       .  S
O691       H1314   0.966       .  S
C692        C796   1.450       .  S
C692        O709   1.276       .  A
C692        O701   1.276       .  A
O693      Ni1112   1.943       .  S
O693        C699   1.274       .  A
O694      Ni1112   1.924   1_554  S
O694       C1696   1.271   1_545  A
Ni695      O1298   1.926       .  S
Ni695       O700   1.909       .  S
C696        C999   1.445       .  S
O697        C703   1.272       .  A
O698        C703   1.273       .  A
C699        C781   1.440       .  S
C699       O1090   1.264   1_545  A
O700        C702   1.268       .  A
O701       Ni712   1.937   1_554  S
C702        C777   1.442       .  S
C702        O708   1.273       .  A
C703        C780   1.442       .  S
H704        O705   0.966       .  S
O705       Ni713   1.913       .  S
O705       Ni707   1.912       .  S
O705       Ni712   1.918       .  S
O706       Ni707   1.926   1_554  S
O706       C1296   1.268       .  A
Ni707       O711   1.909   1_556  S
Ni707       O709   1.926   1_556  S
O708       Ni713   1.935       .  S
C710        C797   1.430       .  S
C710        O711   1.267       .  A
Ni712       O893   1.943       .  S
Ni712       O894   1.924   1_556  S
Ni713      O1297   1.921       .  S
N715        C719   1.367       .  A
N715        C716   1.376       .  A
N715        C733   1.480       .  S
C716        C717   1.367       .  A
C716        C785   1.453       .  S
C717        C718   1.358       .  A
C717        H720   1.081       .  S
C718        C719   1.380       .  A
C718       H1321   1.082       .  S
C719       C1344   1.467       .  S
N722       C1326   1.352       .  A
N722        C723   1.362       .  A
N722        C736   1.459       .  S
C723       C1324   1.357       .  A
C723        C782   1.446       .  S
C724        C725   1.353       .  A
C724        H727   1.058       .  S
C725        C726   1.376       .  A
C725        H728   1.083       .  S
C726        C747   1.440       .  S
C729        H730   1.101       .  S
C729        C735   1.539   1_545  S
C729        C734   1.557       .  S
C729        C733   1.542       .  S
C731        H732   1.098       .  S
C731        C737   1.549       .  S
C731        C736   1.555       .  S
C731        C738   1.531   1_545  S
C733        C736   1.415       .  D
C734        N756   1.471       .  S
C734        C737   1.416       .  D
C735       C1153   1.455       .  S
C735        C738   1.318       .  D
C737        N763   1.479       .  S
C738       C1174   1.476       .  S
C739        H740   1.096       .  S
C739        C745   1.528       .  S
C739        C744   1.528       .  S
C739        C743   1.570       .  S
C741        H742   1.101       .  S
C741        C747   1.536       .  S
C741        C746   1.556       .  S
C741        C748   1.543       .  S
C743        N749   1.470       .  S
C743        C746   1.420       .  D
C744        C747   1.330       .  D
C745        C760   1.462       .  S
C745        C748   1.328       .  D
C746        N770   1.483       .  S
C748        C767   1.461       .  S
N749        C753   1.348       .  A
N749        C750   1.356       .  A
C750        C751   1.373       .  A
C750        C787   1.437       .  S
C751        C752   1.360       .  A
C751        H754   1.068       .  S
C752        C753   1.370       .  A
C752        H955   1.081       .  S
C753        C935   1.455       .  S
H755       C1152   1.081       .  S
N756        C760   1.346       .  A
N756        C757   1.367       .  A
C757        C758   1.376       .  A
C757        C783   1.447       .  S
C758        C759   1.361       .  A
C758        H761   1.083       .  S
C759        C760   1.377       .  A
C759        H762   1.074       .  S
N763        C767   1.352       .  A
N763        C764   1.368       .  A
C764        C765   1.374       .  A
C764        C778   1.445       .  S
C765        C766   1.358       .  A
C765        H768   1.083       .  S
C766        C767   1.375       .  A
C766        H769   1.073       .  S
N770        C774   1.359       .  A
N770        C771   1.368       .  A
C771        C772   1.370       .  A
C771        C779   1.447       .  S
C772        C773   1.361       .  A
C772        H775   1.080       .  S
C773        C774   1.374       .  A
C773        H976   1.077       .  S
C774        C938   1.476       .  S
H776       C1173   1.077       .  S
C777        C778   1.210       .  T
C779        C780   1.210       .  T
C781        C782   1.209       .  T
C783        C784   1.212       .  T
C785       C1186   1.215       .  T
C786        C985   1.215       .  T
C787        C788   1.202       .  T
C789        C790   1.211       .  T
C790       C1077   1.444       .  S
C791        C792   1.212       .  T
C793        C794   1.209       .  T
C795        C796   1.215       .  T
C797        C798   1.203       .  T
C799       C1096   1.445   1_545  S
C799        C800   1.211       .  T
N801        C805   1.348       .  A
N801        C802   1.367       .  A
N801        C813   1.473       .  S
C802        C803   1.376       .  A
C802       C1000   1.446       .  S
C803        C804   1.359       .  A
C803        H806   1.083       .  S
C804        C805   1.374       .  A
C804        H807   1.071       .  S
C805        C826   1.462       .  S
C808        H809   1.103       .  S
C808        C813   1.558       .  S
C808        C812   1.538       .  S
C810        H811   1.101       .  S
C810        C816   1.549       .  S
C810        C815   1.533       .  S
C812        C832   1.453       .  S
C812        C815   1.319       .  D
C813        C816   1.417       .  D
C814        N835   1.479       .  S
C814       C1008   1.543       .  S
C814        C817   1.412       .  D
C815        C846   1.476       .  S
C816        N856   1.478       .  S
C817        N849   1.458       .  S
C817       C1010   1.555       .  S
C818        H819   1.097       .  S
C818        C824   1.558       .  S
C818        C823   1.539       .  S
C818        C822   1.534       .  S
C820        H821   1.099       .  S
C820        C826   1.531       .  S
C820        C825   1.530       .  S
C820        C827   1.571       .  S
C822        C853   1.442       .  S
C822        C825   1.330       .  D
C823        C860   1.459       .  S
C823        C826   1.328       .  D
C824        C827   1.422       .  D
C825        C839   1.468       .  S
N828        C832   1.344       .  A
N828        C829   1.354       .  A
N828       C1427   1.468       .  S
C829        C830   1.373       .  A
C829        C998   1.438       .  S
C830        C831   1.361       .  A
C830        H833   1.069       .  S
C831        C832   1.371       .  A
C831        H834   1.081       .  S
N835        C839   1.366       .  A
N835        C836   1.373       .  A
C836        C837   1.370       .  A
C836        C995   1.453       .  S
C837        C838   1.360       .  A
C837        H840   1.082       .  S
C838        C839   1.379       .  A
C838        H841   1.081       .  S
N842        C846   1.363       .  A
N842        C843   1.371       .  A
N842       C1424   1.488       .  S
C843        C844   1.374       .  A
C843        C994   1.447       .  S
C844        C845   1.359       .  A
C844        H847   1.081       .  S
C845        C846   1.373       .  A
C845        H848   1.076       .  S
N849        C853   1.354       .  A
N849        C850   1.362       .  A
C850        C851   1.356       .  A
C850        C991   1.450       .  S
C851        C852   1.351       .  A
C851        H854   1.053       .  S
C852        C853   1.374       .  A
C852        H855   1.084       .  S
N856        C860   1.350       .  A
N856        C857   1.368       .  A
C857        C858   1.375       .  A
C857        C989   1.446       .  S
C858        C859   1.359       .  A
C858        H861   1.083       .  S
C859        C860   1.376       .  A
C859        H862   1.075       .  S
O863       Ni869   1.919       .  S
O863        C884   1.263       .  A
O864       Ni887   1.907       .  S
O864        C873   1.267       .  A
O865      Ni1469   1.916       .  S
O865       Ni887   1.907       .  S
O865       Ni881   1.904       .  S
O865       H1488   0.966       .  S
C866        C984   1.446       .  S
C866        O883   1.269       .  A
C866        O875   1.278       .  A
O867       Ni886   1.947       .  S
O867        C873   1.276       .  A
O868       Ni886   1.923       .  S
O868        C870   1.272       .  A
Ni869       O872   1.923       .  S
Ni869       O874   1.916       .  S
C870        C986   1.451       .  S
C870        O880   1.274       .  A
O871       Ni887   1.932       .  S
O871       C1477   1.278       .  A
O872        C877   1.275       .  A
C873        C992   1.445       .  S
O875       Ni886   1.943       .  S
C876        C993   1.440       .  S
C876       O1474   1.268       .  A
C876        O882   1.268       .  A
C877       C1190   1.444       .  S
H878        O879   0.966       .  S
O879       Ni887   1.918       .  S
O879       Ni881   1.908       .  S
O879       Ni886   1.912       .  S
O880       Ni881   1.938       .  S
Ni881      O1485   1.907       .  S
Ni881       O883   1.907       .  S
O882       Ni887   1.925       .  S
C884        C988   1.429       .  S
C884        O885   1.266       .  A
O889       Ni895   1.915       .  S
O889        C910   1.263   1_556  A
O890       Ni913   1.897       .  S
O890       C1099   1.264       .  A
O891       Ni895   1.916       .  S
O891       Ni913   1.906       .  S
O891       Ni907   1.921       .  S
O891       H1514   0.966       .  S
C892        C996   1.450       .  S
C892        O909   1.276       .  A
C892        O901   1.276       .  A
O893        C899   1.274       .  A
O894       C1296   1.271       .  A
Ni895      O1498   1.926       .  S
Ni895       O900   1.909       .  S
C896       C1199   1.445       .  S
O897        C903   1.272       .  A
O898        C903   1.273       .  A
C899        C981   1.440       .  S
O900        C902   1.268       .  A
O901       Ni912   1.937   1_554  S
C902        C977   1.442       .  S
C902        O908   1.273       .  A
C903        C980   1.442       .  S
H904        O905   0.966       .  S
O905       Ni913   1.913       .  S
O905       Ni907   1.912       .  S
O905       Ni912   1.918       .  S
O906       Ni907   1.926   1_554  S
O906       C1496   1.268       .  A
Ni907       O911   1.909   1_556  S
Ni907       O909   1.926   1_556  S
O908       Ni913   1.935       .  S
C910        C997   1.430       .  S
C910        O911   1.267       .  A
Ni912      O1093   1.943       .  S
Ni912      O1094   1.924   1_556  S
Ni913      O1497   1.921       .  S
N915        C919   1.367       .  A
N915        C916   1.376       .  A
N915        C933   1.480       .  S
C916        C917   1.367       .  A
C916        C985   1.453       .  S
C917        C918   1.358       .  A
C917        H920   1.081       .  S
C918        C919   1.380       .  A
C918       H1521   1.082       .  S
C919       C1544   1.467       .  S
N922       C1526   1.352       .  A
N922        C923   1.362       .  A
N922        C936   1.459       .  S
C923       C1524   1.357       .  A
C923        C982   1.446       .  S
C924        C925   1.353       .  A
C924        H927   1.058       .  S
C925        C926   1.376       .  A
C925        H928   1.083       .  S
C926        C947   1.440       .  S
C929        H930   1.101       .  S
C929        C935   1.539       .  S
C929        C934   1.557       .  S
C929        C933   1.542       .  S
C931        H932   1.098       .  S
C931        C937   1.549       .  S
C931        C936   1.555       .  S
C931        C938   1.531       .  S
C933        C936   1.415       .  D
C934        N956   1.471       .  S
C934        C937   1.416       .  D
C935        C938   1.318       .  D
C937        N963   1.479       .  S
C939        H940   1.096       .  S
C939        C945   1.528       .  S
C939        C944   1.528       .  S
C939        C943   1.570       .  S
C941        H942   1.101       .  S
C941        C947   1.536       .  S
C941        C946   1.556       .  S
C941        C948   1.543       .  S
C943        N949   1.470       .  S
C943        C946   1.420       .  D
C944        C947   1.330       .  D
C945        C960   1.462       .  S
C945        C948   1.328       .  D
C946        N970   1.483       .  S
C948        C967   1.461       .  S
N949        C953   1.348       .  A
N949        C950   1.356       .  A
C950        C951   1.373       .  A
C950        C987   1.437       .  S
C951        C952   1.360       .  A
C951        H954   1.068       .  S
C952        C953   1.370       .  A
C952       H1155   1.081       .  S
C953       C1135   1.455       .  S
N956        C960   1.346       .  A
N956        C957   1.367       .  A
C957        C958   1.376       .  A
C957        C983   1.447       .  S
C958        C959   1.361       .  A
C958        H961   1.083       .  S
C959        C960   1.377       .  A
C959        H962   1.074       .  S
N963        C967   1.352       .  A
N963        C964   1.368       .  A
C964        C965   1.374       .  A
C964        C978   1.445       .  S
C965        C966   1.358       .  A
C965        H968   1.083       .  S
C966        C967   1.375       .  A
C966        H969   1.073       .  S
N970        C974   1.359       .  A
N970        C971   1.368       .  A
C971        C972   1.370       .  A
C971        C979   1.447       .  S
C972        C973   1.361       .  A
C972        H975   1.080       .  S
C973        C974   1.374       .  A
C973       H1176   1.077       .  S
C974       C1138   1.476       .  S
C977        C978   1.210       .  T
C979        C980   1.210       .  T
C981        C982   1.209       .  T
C983        C984   1.212       .  T
C986       C1185   1.215       .  T
C987        C988   1.202       .  T
C989        C990   1.211       .  T
C991        C992   1.212       .  T
C993        C994   1.209       .  T
C995        C996   1.215       .  T
C997        C998   1.203       .  T
C999       C1000   1.211       .  T
N1001      C1005   1.348       .  A
N1001      C1002   1.367       .  A
N1001      C1013   1.473       .  S
C1002      C1003   1.376       .  A
C1002      C1200   1.446       .  S
C1003      C1004   1.359       .  A
C1003      H1006   1.083       .  S
C1004      C1005   1.374       .  A
C1004      H1007   1.071       .  S
C1005      C1026   1.462       .  S
C1008      H1009   1.103       .  S
C1008      C1013   1.558       .  S
C1008      C1012   1.538       .  S
C1010      H1011   1.101       .  S
C1010      C1016   1.549       .  S
C1010      C1015   1.533       .  S
C1012      C1032   1.453       .  S
C1012      C1015   1.319       .  D
C1013      C1016   1.417       .  D
C1014      N1035   1.479       .  S
C1014      C1017   1.412       .  D
C1015      C1046   1.476       .  S
C1016      N1056   1.478       .  S
C1017      N1049   1.458       .  S
C1018      H1019   1.097       .  S
C1018      C1024   1.558       .  S
C1018      C1023   1.539       .  S
C1018      C1022   1.534       .  S
C1020      H1021   1.099       .  S
C1020      C1026   1.531       .  S
C1020      C1025   1.530       .  S
C1020      C1027   1.571       .  S
C1022      C1053   1.442       .  S
C1022      C1025   1.330       .  D
C1023      C1060   1.459       .  S
C1023      C1026   1.328       .  D
C1024      C1027   1.422       .  D
C1025      C1039   1.468       .  S
N1028      C1032   1.344       .  A
N1028      C1029   1.354       .  A
N1028      C1627   1.468       .  S
C1029      C1030   1.373       .  A
C1029      C1198   1.438       .  S
C1030      C1031   1.361       .  A
C1030      H1033   1.069       .  S
C1031      C1032   1.371       .  A
C1031      H1034   1.081       .  S
N1035      C1039   1.366       .  A
N1035      C1036   1.373       .  A
C1036      C1037   1.370       .  A
C1036      C1195   1.453       .  S
C1037      C1038   1.360       .  A
C1037      H1040   1.082       .  S
C1038      C1039   1.379       .  A
C1038      H1041   1.081       .  S
N1042      C1046   1.363       .  A
N1042      C1043   1.371       .  A
N1042      C1624   1.488       .  S
C1043      C1044   1.374       .  A
C1043      C1194   1.447       .  S
C1044      C1045   1.359       .  A
C1044      H1047   1.081       .  S
C1045      C1046   1.373       .  A
C1045      H1048   1.076       .  S
N1049      C1053   1.354       .  A
N1049      C1050   1.362       .  A
C1050      C1051   1.356       .  A
C1050      C1191   1.450       .  S
C1051      C1052   1.351       .  A
C1051      H1054   1.053       .  S
C1052      C1053   1.374       .  A
C1052      H1055   1.084       .  S
N1056      C1060   1.350       .  A
N1056      C1057   1.368       .  A
C1057      C1058   1.375       .  A
C1057      C1189   1.446       .  S
C1058      C1059   1.359       .  A
C1058      H1061   1.083       .  S
C1059      C1060   1.376       .  A
C1059      H1062   1.075       .  S
O1063     Ni1069   1.919       .  S
O1063      C1084   1.263       .  A
O1064     Ni1087   1.907       .  S
O1064      C1073   1.267       .  A
O1065     Ni1669   1.916       .  S
O1065     Ni1087   1.907       .  S
O1065     Ni1081   1.904       .  S
O1065      H1688   0.966       .  S
C1066      C1184   1.446       .  S
C1066      O1083   1.269       .  A
C1066      O1075   1.278       .  A
O1067     Ni1086   1.947       .  S
O1067      C1073   1.276       .  A
O1068     Ni1086   1.923       .  S
O1068      C1070   1.272       .  A
Ni1069     O1072   1.923       .  S
Ni1069     O1074   1.916       .  S
C1070      C1186   1.451   1_565  S
C1070      O1080   1.274       .  A
O1071     Ni1087   1.932       .  S
O1071      C1677   1.278   1_565  A
O1072      C1077   1.275   1_565  A
C1073      C1192   1.445       .  S
O1075     Ni1086   1.943       .  S
C1076      C1193   1.440       .  S
C1076      O1674   1.268       .  A
C1076      O1082   1.268       .  A
H1078      O1079   0.966       .  S
O1079     Ni1087   1.918       .  S
O1079     Ni1081   1.908       .  S
O1079     Ni1086   1.912       .  S
O1080     Ni1081   1.938       .  S
Ni1081     O1685   1.907       .  S
Ni1081     O1083   1.907       .  S
O1082     Ni1087   1.925       .  S
C1084      C1188   1.429       .  S
C1084      O1085   1.266       .  A
O1089     Ni1095   1.915       .  S
O1089      C1110   1.263   1_556  A
O1090     Ni1113   1.897       .  S
O1091     Ni1095   1.916       .  S
O1091     Ni1113   1.906       .  S
O1091     Ni1107   1.921       .  S
O1091      H1714   0.966       .  S
C1092      C1196   1.450       .  S
C1092      O1109   1.276       .  A
C1092      O1101   1.276       .  A
O1093      C1099   1.274       .  A
O1094      C1496   1.271       .  A
Ni1095     O1698   1.926       .  S
Ni1095     O1100   1.909       .  S
O1097      C1103   1.272       .  A
O1098      C1103   1.273       .  A
C1099      C1181   1.440       .  S
O1100      C1102   1.268       .  A
O1101     Ni1112   1.937   1_564  S
C1102      C1177   1.442       .  S
C1102      O1108   1.273       .  A
C1103      C1180   1.442       .  S
H1104      O1105   0.966       .  S
O1105     Ni1113   1.913       .  S
O1105     Ni1107   1.912       .  S
O1105     Ni1112   1.918   1_565  S
O1106     Ni1107   1.926   1_554  S
O1106      C1696   1.268       .  A
Ni1107     O1111   1.909   1_556  S
Ni1107     O1109   1.926   1_556  S
O1108     Ni1113   1.935       .  S
C1110      C1197   1.430       .  S
C1110      O1111   1.267       .  A
Ni1113     O1697   1.921       .  S
N1115      C1119   1.367       .  A
N1115      C1116   1.376       .  A
N1115      C1133   1.480       .  S
C1116      C1117   1.367       .  A
C1116      C1185   1.453       .  S
C1117      C1118   1.358       .  A
C1117      H1120   1.081       .  S
C1118      C1119   1.380       .  A
C1118      H1721   1.082       .  S
C1119      C1744   1.467       .  S
N1122      C1726   1.352       .  A
N1122      C1123   1.362       .  A
N1122      C1136   1.459       .  S
C1123      C1724   1.357       .  A
C1123      C1182   1.446       .  S
C1124      C1125   1.353       .  A
C1124      H1127   1.058       .  S
C1125      C1126   1.376       .  A
C1125      H1128   1.083       .  S
C1126      C1147   1.440       .  S
C1129      H1130   1.101       .  S
C1129      C1135   1.539       .  S
C1129      C1134   1.557       .  S
C1129      C1133   1.542       .  S
C1131      H1132   1.098       .  S
C1131      C1137   1.549       .  S
C1131      C1136   1.555       .  S
C1131      C1138   1.531       .  S
C1133      C1136   1.415       .  D
C1134      N1156   1.471       .  S
C1134      C1137   1.416       .  D
C1135      C1138   1.318       .  D
C1137      N1163   1.479       .  S
C1139      H1140   1.096       .  S
C1139      C1145   1.528       .  S
C1139      C1144   1.528       .  S
C1139      C1143   1.570       .  S
C1141      H1142   1.101       .  S
C1141      C1147   1.536       .  S
C1141      C1146   1.556       .  S
C1141      C1148   1.543       .  S
C1143      N1149   1.470       .  S
C1143      C1146   1.420       .  D
C1144      C1147   1.330       .  D
C1145      C1160   1.462       .  S
C1145      C1148   1.328       .  D
C1146      N1170   1.483       .  S
C1148      C1167   1.461       .  S
N1149      C1153   1.348       .  A
N1149      C1150   1.356       .  A
C1150      C1151   1.373       .  A
C1150      C1187   1.437       .  S
C1151      C1152   1.360       .  A
C1151      H1154   1.068       .  S
C1152      C1153   1.370       .  A
N1156      C1160   1.346       .  A
N1156      C1157   1.367       .  A
C1157      C1158   1.376       .  A
C1157      C1183   1.447       .  S
C1158      C1159   1.361       .  A
C1158      H1161   1.083       .  S
C1159      C1160   1.377       .  A
C1159      H1162   1.074       .  S
N1163      C1167   1.352       .  A
N1163      C1164   1.368       .  A
C1164      C1165   1.374       .  A
C1164      C1178   1.445       .  S
C1165      C1166   1.358       .  A
C1165      H1168   1.083       .  S
C1166      C1167   1.375       .  A
C1166      H1169   1.073       .  S
N1170      C1174   1.359       .  A
N1170      C1171   1.368       .  A
C1171      C1172   1.370       .  A
C1171      C1179   1.447       .  S
C1172      C1173   1.361       .  A
C1172      H1175   1.080       .  S
C1173      C1174   1.374       .  A
C1177      C1178   1.210       .  T
C1179      C1180   1.210       .  T
C1181      C1182   1.209       .  T
C1183      C1184   1.212       .  T
C1187      C1188   1.202       .  T
C1189      C1190   1.211       .  T
C1191      C1192   1.212       .  T
C1193      C1194   1.209       .  T
C1195      C1196   1.215       .  T
C1197      C1198   1.203       .  T
C1199      C1200   1.211       .  T
N1201      C1205   1.348       .  A
N1201      C1202   1.367       .  A
N1201      C1213   1.473       .  S
C1202      C1203   1.376       .  A
C1202      C1400   1.446       .  S
C1203      C1204   1.359       .  A
C1203      H1206   1.083       .  S
C1204      C1205   1.374       .  A
C1204      H1207   1.071       .  S
C1205      C1226   1.462       .  S
C1208      H1209   1.103       .  S
C1208      C1614   1.543   1_545  S
C1208      C1213   1.558       .  S
C1208      C1212   1.538       .  S
C1210      H1211   1.101       .  S
C1210      C1216   1.549       .  S
C1210      C1215   1.533       .  S
C1210      C1617   1.555   1_545  S
C1212      C1232   1.453       .  S
C1212      C1215   1.319       .  D
C1213      C1216   1.417       .  D
C1214      N1235   1.479       .  S
C1214      C1408   1.543       .  S
C1214      C1217   1.412       .  D
C1215      C1246   1.476       .  S
C1216      N1256   1.478       .  S
C1217      N1249   1.458       .  S
C1217      C1410   1.555       .  S
C1218      H1219   1.097       .  S
C1218      C1224   1.558       .  S
C1218      C1223   1.539       .  S
C1218      C1222   1.534       .  S
C1220      H1221   1.099       .  S
C1220      C1226   1.531       .  S
C1220      C1225   1.530       .  S
C1220      C1227   1.571       .  S
C1222      C1253   1.442       .  S
C1222      C1225   1.330       .  D
C1223      C1260   1.459       .  S
C1223      C1226   1.328       .  D
C1224      C1227   1.422       .  D
C1225      C1239   1.468       .  S
N1228      C1232   1.344       .  A
N1228      C1229   1.354       .  A
C1229      C1230   1.373       .  A
C1229      C1398   1.438       .  S
C1230      C1231   1.361   1_545  A
C1230      H1233   1.069   1_545  S
C1231      C1232   1.371   1_565  A
C1231      H1234   1.081       .  S
N1235      C1239   1.366       .  A
N1235      C1236   1.373       .  A
C1236      C1237   1.370       .  A
C1236      C1395   1.453       .  S
C1237      C1238   1.360       .  A
C1237      H1240   1.082       .  S
C1238      C1239   1.379       .  A
C1238      H1241   1.081       .  S
N1242      C1246   1.363       .  A
N1242      C1243   1.371       .  A
C1243      C1244   1.374       .  A
C1243      C1394   1.447       .  S
C1244      C1245   1.359       .  A
C1244      H1247   1.081       .  S
C1245      C1246   1.373       .  A
C1245      H1248   1.076   1_545  S
N1249      C1253   1.354       .  A
N1249      C1250   1.362       .  A
C1250      C1251   1.356       .  A
C1250      C1391   1.450       .  S
C1251      C1252   1.351       .  A
C1251      H1254   1.053       .  S
C1252      C1253   1.374       .  A
C1252      H1255   1.084       .  S
N1256      C1260   1.350       .  A
N1256      C1257   1.368       .  A
C1257      C1258   1.375       .  A
C1257      C1389   1.446       .  S
C1258      C1259   1.359       .  A
C1258      H1261   1.083       .  S
C1259      C1260   1.376       .  A
C1259      H1262   1.075       .  S
O1263     Ni1269   1.919       .  S
O1263      C1284   1.263       .  A
O1264     Ni1287   1.907       .  S
O1264      C1273   1.267       .  A
O1265     Ni1287   1.907   1_455  S
O1265     Ni1281   1.904   1_455  S
C1266      C1384   1.446       .  S
C1266      O1283   1.269       .  A
C1266      O1275   1.278       .  A
O1267     Ni1286   1.947       .  S
O1267      C1273   1.276       .  A
O1268     Ni1286   1.923       .  S
O1268      C1270   1.272       .  A
Ni1269     O1272   1.923       .  S
Ni1269     O1274   1.916       .  S
C1270      C1386   1.451       .  S
C1270      O1280   1.274       .  A
O1271     Ni1287   1.932   1_455  S
O1272      C1277   1.275       .  A
C1273      C1392   1.445       .  S
O1275     Ni1286   1.943       .  S
C1276      C1393   1.440   1_455  S
C1276      O1282   1.268   1_455  A
C1277      C1590   1.444       .  S
H1278      O1279   0.966       .  S
O1279     Ni1287   1.918       .  S
O1279     Ni1281   1.908       .  S
O1279     Ni1286   1.912       .  S
O1280     Ni1281   1.938       .  S
Ni1281     O1283   1.907       .  S
O1282     Ni1287   1.925       .  S
C1284      C1388   1.429       .  S
C1284      O1285   1.266       .  A
O1289     Ni1295   1.915       .  S
O1289      C1310   1.263   1_556  A
O1290     Ni1313   1.897       .  S
O1290      C1499   1.264       .  A
O1291     Ni1295   1.916       .  S
O1291     Ni1313   1.906       .  S
O1291     Ni1307   1.921       .  S
C1292      C1396   1.450       .  S
C1292      O1309   1.276       .  A
C1292      O1301   1.276       .  A
O1293     Ni1712   1.943       .  S
O1293      C1299   1.274       .  A
O1294     Ni1712   1.924   1_554  S
Ni1295     O1300   1.909       .  S
C1296      C1599   1.445       .  S
O1297      C1303   1.272       .  A
O1298      C1303   1.273       .  A
C1299      C1381   1.440       .  S
C1299      O1690   1.264   1_545  A
O1300      C1302   1.268       .  A
O1301     Ni1312   1.937   1_554  S
C1302      C1377   1.442       .  S
C1302      O1308   1.273       .  A
C1303      C1380   1.442       .  S
H1304      O1305   0.966       .  S
O1305     Ni1313   1.913       .  S
O1305     Ni1307   1.912       .  S
O1305     Ni1312   1.918       .  S
O1306     Ni1307   1.926   1_554  S
Ni1307     O1311   1.909   1_556  S
Ni1307     O1309   1.926   1_556  S
O1308     Ni1313   1.935       .  S
C1310      C1397   1.430       .  S
C1310      O1311   1.267       .  A
Ni1312     O1493   1.943       .  S
Ni1312     O1494   1.924   1_556  S
N1315      C1319   1.367       .  A
N1315      C1316   1.376       .  A
N1315      C1333   1.480       .  S
C1316      C1317   1.367       .  A
C1316      C1385   1.453       .  S
C1317      C1318   1.358       .  A
C1317      H1320   1.081       .  S
C1318      C1319   1.380       .  A
N1322      C1323   1.362       .  A
N1322      C1336   1.459       .  S
C1323      C1382   1.446       .  S
C1324      C1325   1.353       .  A
C1324      H1327   1.058       .  S
C1325      C1326   1.376       .  A
C1325      H1328   1.083       .  S
C1326      C1347   1.440       .  S
C1329      H1330   1.101       .  S
C1329      C1335   1.539   1_545  S
C1329      C1334   1.557       .  S
C1329      C1333   1.542       .  S
C1331      H1332   1.098       .  S
C1331      C1337   1.549       .  S
C1331      C1336   1.555       .  S
C1331      C1338   1.531   1_545  S
C1333      C1336   1.415       .  D
C1334      N1356   1.471       .  S
C1334      C1337   1.416       .  D
C1335      C1753   1.455       .  S
C1335      C1338   1.318       .  D
C1337      N1363   1.479       .  S
C1338      C1774   1.476       .  S
C1339      H1340   1.096       .  S
C1339      C1345   1.528       .  S
C1339      C1344   1.528       .  S
C1339      C1343   1.570       .  S
C1341      H1342   1.101       .  S
C1341      C1347   1.536       .  S
C1341      C1346   1.556       .  S
C1341      C1348   1.543       .  S
C1343      N1349   1.470       .  S
C1343      C1346   1.420       .  D
C1344      C1347   1.330       .  D
C1345      C1360   1.462       .  S
C1345      C1348   1.328       .  D
C1346      N1370   1.483       .  S
C1348      C1367   1.461       .  S
N1349      C1353   1.348       .  A
N1349      C1350   1.356       .  A
C1350      C1351   1.373       .  A
C1350      C1387   1.437       .  S
C1351      C1352   1.360       .  A
C1351      H1354   1.068       .  S
C1352      C1353   1.370       .  A
C1352      H1555   1.081       .  S
C1353      C1535   1.455       .  S
H1355      C1752   1.081       .  S
N1356      C1360   1.346       .  A
N1356      C1357   1.367       .  A
C1357      C1358   1.376       .  A
C1357      C1383   1.447       .  S
C1358      C1359   1.361       .  A
C1358      H1361   1.083       .  S
C1359      C1360   1.377       .  A
C1359      H1362   1.074       .  S
N1363      C1367   1.352       .  A
N1363      C1364   1.368       .  A
C1364      C1365   1.374       .  A
C1364      C1378   1.445       .  S
C1365      C1366   1.358       .  A
C1365      H1368   1.083       .  S
C1366      C1367   1.375       .  A
C1366      H1369   1.073       .  S
N1370      C1374   1.359       .  A
N1370      C1371   1.368       .  A
C1371      C1372   1.370       .  A
C1371      C1379   1.447       .  S
C1372      C1373   1.361       .  A
C1372      H1375   1.080       .  S
C1373      C1374   1.374       .  A
C1373      H1576   1.077       .  S
C1374      C1538   1.476       .  S
H1376      C1773   1.077       .  S
C1377      C1378   1.210       .  T
C1379      C1380   1.210       .  T
C1381      C1382   1.209       .  T
C1383      C1384   1.212       .  T
C1385      C1786   1.215       .  T
C1386      C1585   1.215       .  T
C1387      C1388   1.202       .  T
C1389      C1390   1.211       .  T
C1390      C1677   1.444       .  S
C1391      C1392   1.212       .  T
C1393      C1394   1.209       .  T
C1395      C1396   1.215       .  T
C1397      C1398   1.203       .  T
C1399      C1696   1.445   1_545  S
C1399      C1400   1.211       .  T
N1401      C1405   1.348       .  A
N1401      C1402   1.367       .  A
N1401      C1413   1.473       .  S
C1402      C1403   1.376       .  A
C1402      C1600   1.446       .  S
C1403      C1404   1.359       .  A
C1403      H1406   1.083       .  S
C1404      C1405   1.374       .  A
C1404      H1407   1.071       .  S
C1405      C1426   1.462       .  S
C1408      H1409   1.103       .  S
C1408      C1413   1.558       .  S
C1408      C1412   1.538       .  S
C1410      H1411   1.101       .  S
C1410      C1416   1.549       .  S
C1410      C1415   1.533       .  S
C1412      C1432   1.453       .  S
C1412      C1415   1.319       .  D
C1413      C1416   1.417       .  D
C1414      N1435   1.479       .  S
C1414      C1608   1.543       .  S
C1414      C1417   1.412       .  D
C1415      C1446   1.476       .  S
C1416      N1456   1.478       .  S
C1417      N1449   1.458       .  S
C1417      C1610   1.555       .  S
C1418      H1419   1.097       .  S
C1418      C1424   1.558       .  S
C1418      C1423   1.539       .  S
C1418      C1422   1.534       .  S
C1420      H1421   1.099       .  S
C1420      C1426   1.531       .  S
C1420      C1425   1.530       .  S
C1420      C1427   1.571       .  S
C1422      C1453   1.442       .  S
C1422      C1425   1.330       .  D
C1423      C1460   1.459       .  S
C1423      C1426   1.328       .  D
C1424      C1427   1.422       .  D
C1425      C1439   1.468       .  S
N1428      C1432   1.344       .  A
N1428      C1429   1.354       .  A
C1429      C1430   1.373       .  A
C1429      C1598   1.438       .  S
C1430      C1431   1.361       .  A
C1430      H1433   1.069       .  S
C1431      C1432   1.371       .  A
C1431      H1434   1.081       .  S
N1435      C1439   1.366       .  A
N1435      C1436   1.373       .  A
C1436      C1437   1.370       .  A
C1436      C1595   1.453       .  S
C1437      C1438   1.360       .  A
C1437      H1440   1.082       .  S
C1438      C1439   1.379       .  A
C1438      H1441   1.081       .  S
N1442      C1446   1.363       .  A
N1442      C1443   1.371       .  A
C1443      C1444   1.374       .  A
C1443      C1594   1.447       .  S
C1444      C1445   1.359       .  A
C1444      H1447   1.081       .  S
C1445      C1446   1.373       .  A
C1445      H1448   1.076       .  S
N1449      C1453   1.354       .  A
N1449      C1450   1.362       .  A
C1450      C1451   1.356       .  A
C1450      C1591   1.450       .  S
C1451      C1452   1.351       .  A
C1451      H1454   1.053       .  S
C1452      C1453   1.374       .  A
C1452      H1455   1.084       .  S
N1456      C1460   1.350       .  A
N1456      C1457   1.368       .  A
C1457      C1458   1.375       .  A
C1457      C1589   1.446       .  S
C1458      C1459   1.359       .  A
C1458      H1461   1.083       .  S
C1459      C1460   1.376       .  A
C1459      H1462   1.075       .  S
O1463     Ni1469   1.919       .  S
O1463      C1484   1.263       .  A
O1464     Ni1487   1.907       .  S
O1464      C1473   1.267       .  A
O1465     Ni1487   1.907   1_455  S
O1465     Ni1481   1.904   1_455  S
C1466      C1584   1.446       .  S
C1466      O1483   1.269       .  A
C1466      O1475   1.278       .  A
O1467     Ni1486   1.947       .  S
O1467      C1473   1.276       .  A
O1468     Ni1486   1.923       .  S
O1468      C1470   1.272       .  A
Ni1469     O1472   1.923       .  S
Ni1469     O1474   1.916       .  S
C1470      C1586   1.451       .  S
C1470      O1480   1.274       .  A
O1471     Ni1487   1.932   1_455  S
O1472      C1477   1.275       .  A
C1473      C1592   1.445       .  S
O1475     Ni1486   1.943       .  S
C1476      C1593   1.440   1_455  S
C1476      O1482   1.268   1_455  A
C1477      C1790   1.444       .  S
H1478      O1479   0.966       .  S
O1479     Ni1487   1.918       .  S
O1479     Ni1481   1.908       .  S
O1479     Ni1486   1.912       .  S
O1480     Ni1481   1.938       .  S
Ni1481     O1483   1.907       .  S
O1482     Ni1487   1.925       .  S
C1484      C1588   1.429       .  S
C1484      O1485   1.266       .  A
O1489     Ni1495   1.915       .  S
O1489      C1510   1.263   1_556  A
O1490     Ni1513   1.897       .  S
O1490      C1699   1.264       .  A
O1491     Ni1495   1.916       .  S
O1491     Ni1513   1.906       .  S
O1491     Ni1507   1.921       .  S
C1492      C1596   1.450       .  S
C1492      O1509   1.276       .  A
C1492      O1501   1.276       .  A
O1493      C1499   1.274       .  A
Ni1495     O1500   1.909       .  S
C1496      C1799   1.445       .  S
O1497      C1503   1.272       .  A
O1498      C1503   1.273       .  A
C1499      C1581   1.440       .  S
O1500      C1502   1.268       .  A
O1501     Ni1512   1.937   1_554  S
C1502      C1577   1.442       .  S
C1502      O1508   1.273       .  A
C1503      C1580   1.442       .  S
H1504      O1505   0.966       .  S
O1505     Ni1513   1.913       .  S
O1505     Ni1507   1.912       .  S
O1505     Ni1512   1.918       .  S
O1506     Ni1507   1.926   1_554  S
Ni1507     O1511   1.909   1_556  S
Ni1507     O1509   1.926   1_556  S
O1508     Ni1513   1.935       .  S
C1510      C1597   1.430       .  S
C1510      O1511   1.267       .  A
Ni1512     O1693   1.943       .  S
Ni1512     O1694   1.924   1_556  S
N1515      C1519   1.367       .  A
N1515      C1516   1.376       .  A
N1515      C1533   1.480       .  S
C1516      C1517   1.367       .  A
C1516      C1585   1.453       .  S
C1517      C1518   1.358       .  A
C1517      H1520   1.081       .  S
C1518      C1519   1.380       .  A
N1522      C1523   1.362       .  A
N1522      C1536   1.459       .  S
C1523      C1582   1.446       .  S
C1524      C1525   1.353       .  A
C1524      H1527   1.058       .  S
C1525      C1526   1.376       .  A
C1525      H1528   1.083       .  S
C1526      C1547   1.440       .  S
C1529      H1530   1.101       .  S
C1529      C1535   1.539       .  S
C1529      C1534   1.557       .  S
C1529      C1533   1.542       .  S
C1531      H1532   1.098       .  S
C1531      C1537   1.549       .  S
C1531      C1536   1.555       .  S
C1531      C1538   1.531       .  S
C1533      C1536   1.415       .  D
C1534      N1556   1.471       .  S
C1534      C1537   1.416       .  D
C1535      C1538   1.318       .  D
C1537      N1563   1.479       .  S
C1539      H1540   1.096       .  S
C1539      C1545   1.528       .  S
C1539      C1544   1.528       .  S
C1539      C1543   1.570       .  S
C1541      H1542   1.101       .  S
C1541      C1547   1.536       .  S
C1541      C1546   1.556       .  S
C1541      C1548   1.543       .  S
C1543      N1549   1.470       .  S
C1543      C1546   1.420       .  D
C1544      C1547   1.330       .  D
C1545      C1560   1.462       .  S
C1545      C1548   1.328       .  D
C1546      N1570   1.483       .  S
C1548      C1567   1.461       .  S
N1549      C1553   1.348       .  A
N1549      C1550   1.356       .  A
C1550      C1551   1.373       .  A
C1550      C1587   1.437       .  S
C1551      C1552   1.360       .  A
C1551      H1554   1.068       .  S
C1552      C1553   1.370       .  A
C1552      H1755   1.081       .  S
C1553      C1735   1.455       .  S
N1556      C1560   1.346       .  A
N1556      C1557   1.367       .  A
C1557      C1558   1.376       .  A
C1557      C1583   1.447       .  S
C1558      C1559   1.361       .  A
C1558      H1561   1.083       .  S
C1559      C1560   1.377       .  A
C1559      H1562   1.074       .  S
N1563      C1567   1.352       .  A
N1563      C1564   1.368       .  A
C1564      C1565   1.374       .  A
C1564      C1578   1.445       .  S
C1565      C1566   1.358       .  A
C1565      H1568   1.083       .  S
C1566      C1567   1.375       .  A
C1566      H1569   1.073       .  S
N1570      C1574   1.359       .  A
N1570      C1571   1.368       .  A
C1571      C1572   1.370       .  A
C1571      C1579   1.447       .  S
C1572      C1573   1.361       .  A
C1572      H1575   1.080       .  S
C1573      C1574   1.374       .  A
C1573      H1776   1.077       .  S
C1574      C1738   1.476       .  S
C1577      C1578   1.210       .  T
C1579      C1580   1.210       .  T
C1581      C1582   1.209       .  T
C1583      C1584   1.212       .  T
C1586      C1785   1.215       .  T
C1587      C1588   1.202       .  T
C1589      C1590   1.211       .  T
C1591      C1592   1.212       .  T
C1593      C1594   1.209       .  T
C1595      C1596   1.215       .  T
C1597      C1598   1.203       .  T
C1599      C1600   1.211       .  T
N1601      C1605   1.348       .  A
N1601      C1602   1.367       .  A
N1601      C1613   1.473       .  S
C1602      C1603   1.376       .  A
C1602      C1800   1.446       .  S
C1603      C1604   1.359       .  A
C1603      H1606   1.083       .  S
C1604      C1605   1.374       .  A
C1604      H1607   1.071       .  S
C1605      C1626   1.462       .  S
C1608      H1609   1.103       .  S
C1608      C1613   1.558       .  S
C1608      C1612   1.538       .  S
C1610      H1611   1.101       .  S
C1610      C1616   1.549       .  S
C1610      C1615   1.533       .  S
C1612      C1632   1.453       .  S
C1612      C1615   1.319       .  D
C1613      C1616   1.417       .  D
C1614      N1635   1.479       .  S
C1614      C1617   1.412       .  D
C1615      C1646   1.476       .  S
C1616      N1656   1.478       .  S
C1617      N1649   1.458       .  S
C1618      H1619   1.097       .  S
C1618      C1624   1.558       .  S
C1618      C1623   1.539       .  S
C1618      C1622   1.534       .  S
C1620      H1621   1.099       .  S
C1620      C1626   1.531       .  S
C1620      C1625   1.530       .  S
C1620      C1627   1.571       .  S
C1622      C1653   1.442       .  S
C1622      C1625   1.330       .  D
C1623      C1660   1.459       .  S
C1623      C1626   1.328       .  D
C1624      C1627   1.422       .  D
C1625      C1639   1.468       .  S
N1628      C1632   1.344       .  A
N1628      C1629   1.354       .  A
C1629      C1630   1.373       .  A
C1629      C1798   1.438       .  S
C1630      C1631   1.361       .  A
C1630      H1633   1.069       .  S
C1631      C1632   1.371       .  A
C1631      H1634   1.081       .  S
N1635      C1639   1.366       .  A
N1635      C1636   1.373       .  A
C1636      C1637   1.370       .  A
C1636      C1795   1.453       .  S
C1637      C1638   1.360       .  A
C1637      H1640   1.082       .  S
C1638      C1639   1.379       .  A
C1638      H1641   1.081       .  S
N1642      C1646   1.363       .  A
N1642      C1643   1.371       .  A
C1643      C1644   1.374       .  A
C1643      C1794   1.447       .  S
C1644      C1645   1.359       .  A
C1644      H1647   1.081       .  S
C1645      C1646   1.373       .  A
C1645      H1648   1.076       .  S
N1649      C1653   1.354       .  A
N1649      C1650   1.362       .  A
C1650      C1651   1.356       .  A
C1650      C1791   1.450       .  S
C1651      C1652   1.351       .  A
C1651      H1654   1.053       .  S
C1652      C1653   1.374       .  A
C1652      H1655   1.084       .  S
N1656      C1660   1.350       .  A
N1656      C1657   1.368       .  A
C1657      C1658   1.375       .  A
C1657      C1789   1.446       .  S
C1658      C1659   1.359       .  A
C1658      H1661   1.083       .  S
C1659      C1660   1.376       .  A
C1659      H1662   1.075       .  S
O1663     Ni1669   1.919       .  S
O1663      C1684   1.263       .  A
O1664     Ni1687   1.907       .  S
O1664      C1673   1.267       .  A
O1665     Ni1687   1.907   1_455  S
O1665     Ni1681   1.904   1_455  S
C1666      C1784   1.446       .  S
C1666      O1683   1.269       .  A
C1666      O1675   1.278       .  A
O1667     Ni1686   1.947       .  S
O1667      C1673   1.276       .  A
O1668     Ni1686   1.923       .  S
O1668      C1670   1.272       .  A
Ni1669     O1672   1.923       .  S
Ni1669     O1674   1.916       .  S
C1670      C1786   1.451   1_565  S
C1670      O1680   1.274       .  A
O1671     Ni1687   1.932   1_455  S
O1672      C1677   1.275   1_565  A
C1673      C1792   1.445       .  S
O1675     Ni1686   1.943       .  S
C1676      C1793   1.440   1_455  S
C1676      O1682   1.268   1_455  A
H1678      O1679   0.966       .  S
O1679     Ni1687   1.918       .  S
O1679     Ni1681   1.908       .  S
O1679     Ni1686   1.912       .  S
O1680     Ni1681   1.938       .  S
Ni1681     O1683   1.907       .  S
O1682     Ni1687   1.925       .  S
C1684      C1788   1.429       .  S
C1684      O1685   1.266       .  A
O1689     Ni1695   1.915       .  S
O1689      C1710   1.263   1_556  A
O1690     Ni1713   1.897       .  S
O1691     Ni1695   1.916       .  S
O1691     Ni1713   1.906       .  S
O1691     Ni1707   1.921       .  S
C1692      C1796   1.450       .  S
C1692      O1709   1.276       .  A
C1692      O1701   1.276       .  A
O1693      C1699   1.274       .  A
Ni1695     O1700   1.909       .  S
O1697      C1703   1.272       .  A
O1698      C1703   1.273       .  A
C1699      C1781   1.440       .  S
O1700      C1702   1.268       .  A
O1701     Ni1712   1.937   1_564  S
C1702      C1777   1.442       .  S
C1702      O1708   1.273       .  A
C1703      C1780   1.442       .  S
H1704      O1705   0.966       .  S
O1705     Ni1713   1.913       .  S
O1705     Ni1707   1.912       .  S
O1705     Ni1712   1.918   1_565  S
O1706     Ni1707   1.926   1_554  S
Ni1707     O1711   1.909   1_556  S
Ni1707     O1709   1.926   1_556  S
O1708     Ni1713   1.935       .  S
C1710      C1797   1.430       .  S
C1710      O1711   1.267       .  A
N1715      C1719   1.367       .  A
N1715      C1716   1.376       .  A
N1715      C1733   1.480       .  S
C1716      C1717   1.367       .  A
C1716      C1785   1.453       .  S
C1717      C1718   1.358       .  A
C1717      H1720   1.081       .  S
C1718      C1719   1.380       .  A
N1722      C1723   1.362       .  A
N1722      C1736   1.459       .  S
C1723      C1782   1.446       .  S
C1724      C1725   1.353       .  A
C1724      H1727   1.058       .  S
C1725      C1726   1.376       .  A
C1725      H1728   1.083       .  S
C1726      C1747   1.440       .  S
C1729      H1730   1.101       .  S
C1729      C1735   1.539       .  S
C1729      C1734   1.557       .  S
C1729      C1733   1.542       .  S
C1731      H1732   1.098       .  S
C1731      C1737   1.549       .  S
C1731      C1736   1.555       .  S
C1731      C1738   1.531       .  S
C1733      C1736   1.415       .  D
C1734      N1756   1.471       .  S
C1734      C1737   1.416       .  D
C1735      C1738   1.318       .  D
C1737      N1763   1.479       .  S
C1739      H1740   1.096       .  S
C1739      C1745   1.528       .  S
C1739      C1744   1.528       .  S
C1739      C1743   1.570       .  S
C1741      H1742   1.101       .  S
C1741      C1747   1.536       .  S
C1741      C1746   1.556       .  S
C1741      C1748   1.543       .  S
C1743      N1749   1.470       .  S
C1743      C1746   1.420       .  D
C1744      C1747   1.330       .  D
C1745      C1760   1.462       .  S
C1745      C1748   1.328       .  D
C1746      N1770   1.483       .  S
C1748      C1767   1.461       .  S
N1749      C1753   1.348       .  A
N1749      C1750   1.356       .  A
C1750      C1751   1.373       .  A
C1750      C1787   1.437       .  S
C1751      C1752   1.360       .  A
C1751      H1754   1.068       .  S
C1752      C1753   1.370       .  A
N1756      C1760   1.346       .  A
N1756      C1757   1.367       .  A
C1757      C1758   1.376       .  A
C1757      C1783   1.447       .  S
C1758      C1759   1.361       .  A
C1758      H1761   1.083       .  S
C1759      C1760   1.377       .  A
C1759      H1762   1.074       .  S
N1763      C1767   1.352       .  A
N1763      C1764   1.368       .  A
C1764      C1765   1.374       .  A
C1764      C1778   1.445       .  S
C1765      C1766   1.358       .  A
C1765      H1768   1.083       .  S
C1766      C1767   1.375       .  A
C1766      H1769   1.073       .  S
N1770      C1774   1.359       .  A
N1770      C1771   1.368       .  A
C1771      C1772   1.370       .  A
C1771      C1779   1.447       .  S
C1772      C1773   1.361       .  A
C1772      H1775   1.080       .  S
C1773      C1774   1.374       .  A
C1777      C1778   1.210       .  T
C1779      C1780   1.210       .  T
C1781      C1782   1.209       .  T
C1783      C1784   1.212       .  T
C1787      C1788   1.202       .  T
C1789      C1790   1.211       .  T
C1791      C1792   1.212       .  T
C1793      C1794   1.209       .  T
C1795      C1796   1.215       .  T
C1797      C1798   1.203       .  T
C1799      C1800   1.211       .  T
