geometry optimzed in LAMMPS
_audit_creation_date              2020-11-30 
_audit_creation_method            'lammps2cif' 
_symmetry_space_group_name_H-M    'P1' 
_symmetry_Int_Tables_number       1 
_symmetry_cell_setting            triclinic 
loop_ 
_symmetry_equiv_pos_as_xyz 
  x,y,z 
_cell_length_a                    26.445248658902862 
_cell_length_b                    25.9696805924064 
_cell_length_c                    25.320965489752048 
_cell_angle_alpha                 89.45139207951154 
_cell_angle_beta                  89.60332031157533 
_cell_angle_gamma                 90.06761624004852 
loop_ 
_atom_site_label 
_atom_site_type_symbol 
_atom_site_fract_x 
_atom_site_fract_y 
_atom_site_fract_z 
_atom_site_charge 
C1          C  0.85617827  0.86377434  0.86283912    -0.03780
N2          N  0.77510214  0.94810557  0.38816023    -0.07420
N3          N  0.73536215  0.95930831  0.41831904    -0.59540
N4          N  0.84853103  0.96802186  0.27744032    -0.07100
N5          N  0.87462413  0.97603455  0.23339966    -0.61660
N6          N  0.81628974  0.92946653  0.27102141    -0.06690
N7          N  0.82235592  0.91022583  0.22358258    -0.59510
N8          N  0.81003389  0.98300421  0.39375719    -0.06370
N9          N  0.79567386  0.01853714  0.42768273    -0.62020
C10         C  0.74902277  0.00346732  0.44279531     0.94760
C11         C  0.85798913  0.93983163  0.19959904     0.94540
N12         N  0.99143859  0.95443033  0.32364597    -0.07600
N13         N  0.03192046  0.96739997  0.29521998    -0.60110
N14         N  0.91464332  0.96270764  0.43258831    -0.05720
N15         N  0.88512796  0.96420781  0.47478383    -0.61370
N16         N  0.94908220  0.92623098  0.43877449    -0.07630
N17         N  0.94259358  0.90311771  0.48505270    -0.60380
N18         N  0.95578355  0.98820292  0.31670858    -0.05360
N19         N  0.97090699  0.02522050  0.28394451    -0.61450
Mn20       Mn  0.88246553  0.97940735  0.35480169     1.18440
C21         C  0.01885585  0.01211313  0.27066170     0.96840
C22         C  0.90241846  0.92687608  0.50750376     0.97510
N23         N  0.78551003  0.81239555  0.28406259    -0.07650
N24         N  0.74581912  0.79548100  0.25705485    -0.63960
N25         N  0.83196345  0.79735244  0.40828109    -0.06450
N26         N  0.85321786  0.79736371  0.45509565    -0.64630
N27         N  0.79604822  0.83307771  0.40686150    -0.07160
N28         N  0.79323228  0.85622799  0.45318019    -0.64220
N29         N  0.82142469  0.77771780  0.28441576    -0.06050
N30         N  0.80635094  0.73634809  0.25763631    -0.64910
Mn31       Mn  0.78748366  0.88094018  0.33636828     1.10660
C32         C  0.75901770  0.74794687  0.23986470     0.98070
C33         C  0.83008624  0.83471845  0.48267975     0.98140
N34         N  0.97420874  0.81357217  0.41665448    -0.07160
N35         N  0.00446189  0.80054112  0.45588568    -0.62540
N36         N  0.94244094  0.81080341  0.28429000    -0.06480
N37         N  0.92893471  0.82212062  0.23545068    -0.59270
N38         N  0.98112307  0.84085619  0.29757668    -0.07790
N39         N  0.99533119  0.86941403  0.25690851    -0.62100
N40         N  0.94426594  0.77555486  0.40453841    -0.06780
N41         N  0.95326006  0.73537759  0.43591814    -0.59290
Mn42       Mn  0.97722452  0.88375062  0.37054490     1.20190
Mn43       Mn  0.88499878  0.78393592  0.34312718     1.10090
Cl44       Cl  0.88284974  0.88145373  0.34987557    -0.87260
C45         C  0.99073683  0.75181983  0.46805055     0.95070
C46         C  0.96142182  0.85963089  0.21935057     0.94870
N47         N  0.93451164  0.45035966  0.91055002    -0.07420
N48         N  0.92866064  0.49355871  0.88355212    -0.59540
N49         N  0.94292529  0.33642049  0.98081622    -0.07100
N50         N  0.96028052  0.30740271  0.02026360    -0.61660
N51         N  0.97572706  0.33757979  0.94206339    -0.06690
N52         N  0.01609406  0.30958681  0.95429794    -0.59510
N53         N  0.90064141  0.44818088  0.94908254    -0.06370
N54         N  0.87244340  0.49022440  0.94848582    -0.62020
C55         C  0.88953365  0.51813736  0.90677598     0.94760
C56         C  0.00634806  0.29065144  0.00355852     0.94540
N57         N  0.80371635  0.28149446  0.94139309    -0.07600
N58         N  0.81428346  0.23178338  0.93577278    -0.60110
N59         N  0.79446288  0.41073001  0.97202175    -0.05720
N60         N  0.77915802  0.44680177  0.00474530    -0.61370
N61         N  0.75837173  0.39721875  0.93993409    -0.07630
N62         N  0.71714084  0.42530649  0.95032723    -0.60380
N63         N  0.83249216  0.30054621  0.97917644    -0.05360
N64         N  0.86072125  0.26471967  0.99997710    -0.61450
Mn65       Mn  0.86792454  0.37468827  0.97242012     1.18440
C66         C  0.85074190  0.22253423  0.97230428     0.96840
C67         C  0.73084587  0.45643497  0.99124574     0.97510
N68         N  0.96654578  0.31202066  0.82214977    -0.07650
N69         N  0.98340413  0.27099561  0.84665465    -0.63960
N70         N  0.92172727  0.41776014  0.76021530    -0.06450
N71         N  0.93296510  0.44777528  0.71849232    -0.64630
N72         N  0.95462866  0.42629753  0.79738262    -0.07160
N73         N  0.98797197  0.46144756  0.78290301    -0.64220
N74         N  0.93113987  0.29887076  0.78782410    -0.06050
N75         N  0.92361764  0.24853033  0.79023898    -0.64910
Mn76       Mn  0.96017874  0.38171433  0.86872447     1.10660
C77         C  0.95568441  0.23215487  0.82782777     0.98070
C78         C  0.97453736  0.47543748  0.73377465     0.98140
N79         N  0.76530801  0.39324259  0.81611755    -0.07160
N80         N  0.74649380  0.43729845  0.83169179    -0.62540
N81         N  0.81403861  0.28421803  0.77583628    -0.06480
N82         N  0.80217920  0.25459446  0.73535051    -0.59270
N83         N  0.78169616  0.27691040  0.81487638    -0.07790
N84         N  0.74707852  0.24253459  0.80091532    -0.62100
N85         N  0.80083173  0.40149593  0.77941544    -0.06780
N86         N  0.80645912  0.45131642  0.77148856    -0.59290
Mn87       Mn  0.77432389  0.33512637  0.87857935     1.20190
Mn88       Mn  0.86703039  0.35082464  0.77238994     1.10090
Cl89       Cl  0.86688559  0.35969271  0.87247774    -0.87260
C90         C  0.77340939  0.47282308  0.80517393     0.95070
C91         C  0.76060840  0.22796626  0.75134128     0.94870
N92         N  0.40867612  0.77158414  0.94151932    -0.07420
N93         N  0.43388023  0.72884684  0.95495494    -0.59540
N94         N  0.31785933  0.84915533  0.98217094    -0.07100
N95         N  0.28326967  0.87733930  0.00486380    -0.61660
N96         N  0.29718671  0.81720427  0.94797703    -0.06690
N97         N  0.24768380  0.82477839  0.94705008    -0.59510
N98         N  0.42525863  0.80993801  0.96975771    -0.06370
N99         N  0.46039274  0.79447376  0.00305284    -0.62020
C100        C  0.46688249  0.74393541  0.99334280     0.94760
C101        C  0.24016679  0.86341353  0.98203993     0.94540
N102        N  0.34802039  0.99304244  0.93648549    -0.07600
N103        N  0.31794325  0.03234070  0.94840650    -0.60110
N104        N  0.46019674  0.91915826  0.93698883    -0.05720
N105        N  0.50298475  0.89296772  0.93149005    -0.61370
N106        N  0.45722912  0.95462065  0.89945966    -0.07630
N107        N  0.49710791  0.95206237  0.86852793    -0.60380
N108        N  0.35083044  0.96084598  0.97631372    -0.05360
N109        N  0.32201987  0.97716279  0.01600819    -0.61450
Mn110      Mn  0.39007883  0.88516944  0.96851982     1.18440
C111        C  0.30182128  0.02210798  0.99843501     0.96840
C112        C  0.52558126  0.91359074  0.88782464     0.97510
N113        N  0.28425913  0.79089217  0.82227305    -0.07650
N114        N  0.24880323  0.75605309  0.81201194    -0.63960
N115        N  0.40755329  0.80936613  0.78228611    -0.06450
N116        N  0.45723736  0.81403897  0.77758154    -0.64630
N117        N  0.39688569  0.77247982  0.81753453    -0.07160
N118        N  0.43842114  0.75044473  0.83345222    -0.64220
N119        N  0.29044571  0.82165830  0.78119928    -0.06050
N120        N  0.25859454  0.80889320  0.74324268    -0.64910
Mn121      Mn  0.34459910  0.78556131  0.88286773     1.10660
C122        C  0.23206784  0.76810485  0.76271393     0.98070
C123        C  0.47555117  0.77762573  0.81067767     0.98140
N124        N  0.42785526  0.96797598  0.78852888    -0.07160
N125        N  0.46099395  0.00194266  0.77108275    -0.62540
N126        N  0.30377470  0.94079718  0.78724427    -0.06480
N127        N  0.25499713  0.93163318  0.79462946    -0.59270
N128        N  0.31779386  0.97927758  0.81805217    -0.07790
N129        N  0.27899463  0.99677078  0.84448146    -0.62100
N130        N  0.41969131  0.93195346  0.75400269    -0.06780
N131        N  0.44750090  0.94191377  0.71071735    -0.59290
Mn132      Mn  0.38748579  0.97588903  0.86141836     1.20190
Mn133      Mn  0.35580301  0.87576908  0.77215556     1.10090
Cl134      Cl  0.36856027  0.87999628  0.87086132    -0.87260
C135        C  0.47324418  0.98624947  0.72240098     0.95070
C136        C  0.24062416  0.96603010  0.83128362     0.94870
C137        C  0.38483679  0.37649085  0.88257419    -0.03780
C138        C  0.36482989  0.87132417  0.37325198    -0.03780
C139        C  0.88609675  0.36423979  0.37998057    -0.03780
N140        N  0.19037740  0.06490624  0.71172189    -0.07420
N141        N  0.18007146  0.07839038  0.76103128    -0.59540
N142        N  0.20046310  0.02090116  0.58441976    -0.07100
N143        N  0.21405403  0.98648527  0.54911620    -0.61660
N144        N  0.23930418  0.04935511  0.59783490    -0.06690
N145        N  0.27982255  0.03586308  0.56983896    -0.59510
N146        N  0.16240182  0.02507877  0.69850327    -0.06370
N147        N  0.13279942  0.01214119  0.73788235    -0.62020
C148        C  0.14270480  0.04572044  0.77621648     0.94760
C149        C  0.26349971  0.99609113  0.53974943     0.94540
N150        N  0.04976750  0.08090973  0.55383965    -0.07600
N151        N  0.00716531  0.06944834  0.53125546    -0.60110
N152        N  0.05554179  0.00742323  0.66692363    -0.05720
N153        N  0.04060775  0.96656727  0.69506997    -0.61370
N154        N  0.02031642  0.04206039  0.66617765    -0.07630
N155        N  0.98027007  0.02596290  0.69338703    -0.60380
N156        N  0.08038987  0.04016616  0.55423239    -0.05360
N157        N  0.05522982  0.00054077  0.53649425    -0.61450
Mn158      Mn  0.12675571  0.02313947  0.62437152     1.18440
C159        C  0.00790324  0.01833915  0.52993856     0.96840
C160        C  0.99309576  0.97860206  0.71171174     0.97510
N161        N  0.16763992  0.13079465  0.59671047    -0.07650
N162        N  0.17131294  0.11377992  0.54724167    -0.63960
N163        N  0.18623837  0.21521977  0.71238824    -0.06450
N164        N  0.19992061  0.25223935  0.74519275    -0.64630
N165        N  0.22371857  0.18213465  0.70668037    -0.07160
N166        N  0.26277176  0.19661366  0.73566162    -0.64220
N167        N  0.13235564  0.16605294  0.59942186    -0.06050
N168        N  0.11278178  0.17333994  0.55136943    -0.64910
Mn169      Mn  0.22893166  0.11510161  0.65307984     1.10660
C170        C  0.13539353  0.13881407  0.51969780     0.98070
C171        C  0.24745981  0.24002526  0.75985357     0.98140
N172        N  0.03039574  0.14754922  0.70489919    -0.07160
N173        N  0.01228420  0.11706293  0.74142053    -0.62540
N174        N  0.05076967  0.23406001  0.61003115    -0.06480
N175        N  0.04028832  0.27305837  0.57721483    -0.59270
N176        N  0.02444132  0.19372944  0.59620544    -0.07790
N177        N  0.99418245  0.20461724  0.55687173    -0.62100
N178        N  0.06763949  0.17565937  0.72308676    -0.06780
N179        N  0.07348060  0.16503179  0.77452003    -0.59290
Mn180      Mn  0.03248486  0.11758818  0.62903397     1.20190
Mn181      Mn  0.11661983  0.22126595  0.66429935     1.10090
Cl182      Cl  0.12781576  0.12088437  0.64309498    -0.87260
C183        C  0.03877581  0.12692587  0.78472833     0.95070
C184        C  0.00431074  0.25376991  0.54422339     0.94870
N185        N  0.05739864  0.67298471  0.19638178    -0.07420
N186        N  0.05830720  0.72394491  0.19405289    -0.59540
N187        N  0.03676402  0.54436376  0.17125602    -0.07100
N188        N  0.00198246  0.51026038  0.18639397    -0.61660
N189        N  0.06757030  0.55406824  0.21050378    -0.06690
N190        N  0.05519344  0.52536563  0.25232605    -0.59510
N191        N  0.01919828  0.65622566  0.16776657    -0.06370
N192        N  0.99165217  0.69421359  0.15074681    -0.62020
C193        C  0.01675744  0.73577679  0.16513105     0.94760
C194        C  0.01446187  0.49773202  0.23676335     0.94540
N195        N  0.07957330  0.56094032  0.00452509    -0.07600
N196        N  0.05689280  0.56210455  0.95858847    -0.60110
N197        N  0.01862988  0.66312617  0.04353975    -0.05720
N198        N  0.97739533  0.69057416  0.03265853    -0.61370
N199        N  0.05445022  0.67440461  0.00913703    -0.07630
N200        N  0.03827175  0.70973294  0.97465494    -0.60380
N201        N  0.04647485  0.54792936  0.04216259    -0.05360
N202        N  0.00283576  0.53781722  0.02037601    -0.61450
Mn203      Mn  0.03095530  0.60125031  0.10656916     1.18440
C204        C  0.00848177  0.55228288  0.96977187     0.96840
C205        C  0.99000918  0.72034522  0.98999147     0.97510
N206        N  0.18321188  0.56352253  0.19514415    -0.07650
N207        N  0.16712805  0.51581400  0.18833572    -0.63960
N208        N  0.21354164  0.69025415  0.17739227    -0.06450
N209        N  0.24739285  0.72542930  0.18904053    -0.64630
N210        N  0.17905014  0.68595140  0.21437421    -0.07160
N211        N  0.18982158  0.71878073  0.25308294    -0.64220
N212        N  0.22164172  0.57260844  0.16218857    -0.05650
N213        N  0.23261673  0.53058188  0.13578999    -0.64910
Mn214      Mn  0.12247930  0.62042824  0.20838614     1.10660
C215        C  0.19677150  0.49676902  0.14981136     0.98070
C216        C  0.23300854  0.74342003  0.23632258     0.98140
N217        N  0.16831270  0.69931154  0.02266667    -0.07160
N218        N  0.14173705  0.74143378  0.01719003    -0.62540
N219        N  0.23122057  0.58916606  0.04314441    -0.06480
N220        N  0.26934210  0.55710723  0.03542826    -0.59270
N221        N  0.19652212  0.58281124  0.00726538    -0.07790
N222        N  0.21039354  0.54613148  0.97417547    -0.62100
N223        N  0.20161672  0.70516746  0.06079398    -0.06780
N224        N  0.19707603  0.75158553  0.08150281    -0.59290
Mn225      Mn  0.12641376  0.62885601  0.00992210     1.20190
Mn226      Mn  0.21934783  0.63989921  0.11092926     1.10090
Cl227      Cl  0.12452454  0.62228510  0.10917128    -0.87260
C228        C  0.15853007  0.77299142  0.05480815     0.95070
C229        C  0.25601610  0.52999276  0.99246083     0.94870
N230        N  0.67398599  0.05369451  0.02442988    -0.07420
N231        N  0.70833769  0.03719139  0.99022032    -0.59540
N232        N  0.55250129  0.05196709  0.04796478    -0.07100
N233        N  0.54520947  0.01100053  0.01889806    -0.61660
N234        N  0.56465672  0.09110421  0.01619422    -0.06690
N235        N  0.56337031  0.07678812  0.96673615    -0.59510
N236        N  0.66165540  0.01688408  0.05802780    -0.06370
N237        N  0.68793668  0.97433393  0.04664287    -0.62020
C238        C  0.71750303  0.98749522  0.00397548     0.94760
C239        C  0.55595310  0.02617888  0.96917843     0.94540
N240        N  0.55020587  0.07222250  0.21970731    -0.07600
N241        N  0.52177762  0.05749219  0.26082316    -0.60110
N242        N  0.64516746  0.01489292  0.18378901    -0.05720
N243        N  0.67875576  0.98210749  0.16812780    -0.61370
N244        N  0.66617994  0.05236614  0.21092706    -0.07630
N245        N  0.71603807  0.04813869  0.20719588    -0.60380
N246        N  0.53946797  0.04338496  0.17856764    -0.05360
N247        N  0.50463915  0.00856003  0.19163179    -0.61450
Mn248      Mn  0.59815154  0.03269100  0.11748400     1.18440
C249        C  0.49270485  0.01825017  0.24267463     0.96840
C250        C  0.72243733  0.00346907  0.18044653     0.97510
N251        N  0.59780917  0.20418026  0.02010801    -0.07650
N252        N  0.56470027  0.21953512  0.98457533    -0.63960
N253        N  0.71744911  0.19619509  0.07752760    -0.06450
N254        N  0.76409911  0.18731593  0.09517227    -0.64630
N255        N  0.70799446  0.16556820  0.03762297    -0.07160
N256        N  0.74738618  0.13712069  0.02712254    -0.64220
N257        N  0.60386042  0.23911741  0.05628560    -0.06050
N258        N  0.57433658  0.27946645  0.04600652    -0.64910
Mn259      Mn  0.63566552  0.13002502  0.02463297     1.10660
C260        C  0.55008024  0.26682389  0.00061076     0.98070
C261        C  0.78190831  0.14963867  0.06324853     0.98140
N262        N  0.68993257  0.17493333  0.23129632    -0.07160
N263        N  0.72046127  0.18405662  0.27208370    -0.62540
N264        N  0.58623694  0.22922295  0.17716750    -0.06480
N265        N  0.54532379  0.24951798  0.15636063    -0.59270
N266        N  0.57373132  0.19245585  0.21171124    -0.07790
N267        N  0.52414690  0.18754029  0.21333061    -0.62100
N268        N  0.69862122  0.20960471  0.19443542    -0.06780
N269        N  0.73424579  0.24196776  0.20838729    -0.59290
Mn270      Mn  0.62090032  0.12311457  0.22219720     1.20190
Mn271      Mn  0.65230704  0.22104388  0.12618413     1.10090
Cl272      Cl  0.62606736  0.12669726  0.12305542    -0.87260
C273        C  0.74890896  0.22575887  0.25636197     0.95070
C274        C  0.50725099  0.22271916  0.17830241     0.94870
C275        C  0.61184262  0.61032885  0.11966037    -0.03780
C276        C  0.11063572  0.62834314  0.62240774    -0.03780
N277        N  0.31231036  0.28326437  0.47304919    -0.07420
N278        N  0.29557380  0.24077480  0.49518604    -0.59540
N279        N  0.24344708  0.29656676  0.36069117    -0.07100
N280        N  0.20675428  0.28548157  0.32704775    -0.61660
N281        N  0.27653009  0.25937388  0.36158489    -0.06690
N282        N  0.26329709  0.22212897  0.32973790    -0.59510
N283        N  0.27663543  0.31888136  0.47483306    -0.06370
N284        N  0.23584939  0.29929278  0.49681833    -0.62020
C285        C  0.24624263  0.24903185  0.50284040     0.94760
C286        C  0.21965829  0.23830808  0.30835394     0.94540
N287        N  0.28355854  0.44235730  0.31629727    -0.07600
N288        N  0.28151499  0.44120782  0.26429863    -0.60110
N289        N  0.27429563  0.43608660  0.44993743    -0.05720
N290        N  0.24314672  0.45270715  0.48658018    -0.61370
N291        N  0.30536879  0.47265146  0.43393021    -0.07630
N292        N  0.29452708  0.51580863  0.45995085    -0.60380
N293        N  0.24828553  0.41174861  0.33628551    -0.05360
N294        N  0.22130437  0.39097409  0.29878955    -0.61450
Mn295      Mn  0.26031003  0.36693677  0.40624610     1.18440
C296        C  0.24319043  0.40824638  0.25451087     0.96840
C297        C  0.25570459  0.50232772  0.49336808     0.97510
N298        N  0.38217454  0.25813430  0.32029138    -0.07650
N299        N  0.35698404  0.23562625  0.28202087    -0.63960
N300        N  0.45817509  0.30116678  0.41754770    -0.06450
N301        N  0.50125892  0.28937985  0.44173603    -0.64630
N302        N  0.42225793  0.27050486  0.43468114    -0.07160
N303        N  0.43923193  0.23755341  0.47012496    -0.64220
N304        N  0.41323100  0.29322268  0.30081642    -0.06050
N305        N  0.40825935  0.29586849  0.24899462    -0.64910
Mn306      Mn  0.34943473  0.26757048  0.39838004     1.10660
C307        C  0.37256847  0.26007199  0.23785867     0.98070
C308        C  0.48851975  0.24942905  0.47460791     0.98140
N309        N  0.42797984  0.46358395  0.39811757    -0.07160
N310        N  0.45464138  0.50614505  0.39123616    -0.62540
N311        N  0.43359502  0.41255800  0.28488772    -0.06480
N312        N  0.47210132  0.42541329  0.25369553    -0.59270
N313        N  0.40172319  0.45137303  0.28823135    -0.07790
N314        N  0.41886382  0.49086610  0.25933186    -0.62100
N315        N  0.45906764  0.42322613  0.39707999    -0.06780
N316        N  0.50603624  0.43857754  0.39152694    -0.59290
Mn317      Mn  0.35323844  0.45930144  0.36012903     1.20190
Mn318      Mn  0.44181514  0.35599122  0.35043686     1.10090
Cl319      Cl  0.35180509  0.36322642  0.37965673    -0.87260
C320        C  0.50268352  0.48959119  0.38589912     0.95070
C321        C  0.46271493  0.47414260  0.23713050     0.94870
N322        N  0.55146159  0.67981048  0.68328313    -0.07420
N323        N  0.55733530  0.67054913  0.73446100    -0.59540
N324        N  0.55420933  0.71139412  0.55133975    -0.07100
N325        N  0.53725655  0.74757128  0.51934349    -0.61660
N326        N  0.51879211  0.67822344  0.56350102    -0.06690
N327        N  0.47624153  0.69108388  0.53889408    -0.59510
N328        N  0.58261027  0.71717915  0.66808782    -0.06370
N329        N  0.60882583  0.73335128  0.70826832    -0.62020
C330        C  0.59425592  0.70359768  0.74902626     0.94760
C331        C  0.48862019  0.73480937  0.51148798     0.94540
N332        N  0.70244476  0.66437657  0.52218776    -0.07600
N333        N  0.74316744  0.68132163  0.49839686    -0.60110
N334        N  0.69284573  0.73164971  0.63730767    -0.05720
N335        N  0.70453452  0.77058028  0.66844771    -0.61370
N336        N  0.72963818  0.69855184  0.63578087    -0.07630
N337        N  0.76738871  0.71386269  0.66576957    -0.60380
N338        N  0.66754856  0.70100567  0.52265574    -0.05360
N339        N  0.68594764  0.74242464  0.50005449    -0.61450
Mn340      Mn  0.62331736  0.71616924  0.59398642     1.18440
C341        C  0.73539625  0.73190699  0.49559156     0.96840
C342        C  0.75155901  0.75904872  0.68606433     0.97510
N343        N  0.54303806  0.55968776  0.56614012    -0.07650
N344        N  0.54249397  0.57883385  0.51760825    -0.63960
N345        N  0.57680890  0.52847160  0.69253861    -0.06450
N346        N  0.56589317  0.49051344  0.72589183    -0.64630
N347        N  0.53906972  0.56084315  0.68925844    -0.07160
N348        N  0.50184273  0.54602036  0.72094240    -0.64220
N349        N  0.57940175  0.52413473  0.56991275    -0.06050
N350        N  0.60158498  0.51905036  0.52345082    -0.64910
Mn351      Mn  0.53344592  0.61907700  0.62643111     1.10660
C352        C  0.58036034  0.55490108  0.49236924     0.98070
C353        C  0.51898383  0.50199760  0.74338983     0.98140
N354        N  0.72790483  0.58909629  0.67146584    -0.07160
N355        N  0.74590583  0.61824419  0.70878001    -0.62540
N356        N  0.69534294  0.51458695  0.57198324    -0.06480
N357        N  0.70794281  0.47212222  0.54629972    -0.59270
N358        N  0.72345516  0.55286941  0.55573744    -0.07790
N359        N  0.75647801  0.53798867  0.51971951    -0.62100
N360        N  0.69325601  0.55720440  0.69066698    -0.06780
N361        N  0.68736733  0.56588016  0.74214810    -0.59290
Mn362      Mn  0.72137070  0.62522168  0.59511829     1.20190
Mn363      Mn  0.63622704  0.52694405  0.63349279     1.10090
Cl364      Cl  0.62782797  0.62132661  0.61207996    -0.87260
C365        C  0.72032556  0.60502251  0.75251106     0.95070
C366        C  0.74605153  0.48764342  0.51354019     0.94870
C367        C  0.62446848  0.11489107  0.60196601    -0.03780
C368        C  0.14001173  0.13731514  0.11727218    -0.03780
C369        C  0.16841337  0.16759486  0.16307600    -0.07420
C370        C  0.19397801  0.13953885  0.20284151    -0.18550
C371        C  0.20517712  0.16012751  0.25226290     0.09780
C372        C  0.19822027  0.21316554  0.26096771    -0.07350
C373        C  0.18182061  0.24379461  0.21866918    -0.18580
C374        C  0.17015378  0.22240218  0.16929301     0.09810
S375        S  0.22823625  0.11740103  0.30369833    -0.33550
S376        S  0.17364211  0.26671745  0.11402647    -0.33550
H377        H  0.14266065  0.30351837  0.13845259     0.27820
H378        H  0.22517092  0.07120226  0.27536747     0.27810
H379        H  0.20723123  0.10142748  0.19532753     0.18400
H380        H  0.18308977  0.28516119  0.22254377     0.18410
C381        C  0.52378949  0.21717053  0.50662312    -0.07420
C382        C  0.55363088  0.23947858  0.54570579    -0.18550
C383        C  0.58270875  0.20914580  0.58110237     0.09780
C384        C  0.58727015  0.15443131  0.57322644    -0.07350
C385        C  0.55218378  0.13303568  0.53743663    -0.18580
C386        C  0.52215856  0.16305054  0.50403755     0.09810
S387        S  0.60267330  0.24120151  0.64059038    -0.33550
S388        S  0.48450854  0.12982818  0.45619553    -0.33550
H389        H  0.44015056  0.13546921  0.48658872     0.27820
H390        H  0.59961041  0.29209148  0.62134628     0.27810
H391        H  0.55081733  0.28067949  0.55111496     0.18400
H392        H  0.55031866  0.09178516  0.53291156     0.18410
C393        C  0.60174076  0.57139513  0.44078479    -0.07420
C394        C  0.62527208  0.53067062  0.41467525    -0.18550
C395        C  0.59490402  0.50274604  0.38014753     0.09780
C396        C  0.54564170  0.52203604  0.37092412    -0.07350
C397        C  0.53802914  0.57517427  0.37519837    -0.18580
C398        C  0.56934296  0.60158771  0.40951244     0.09810
S399        S  0.61422281  0.43993162  0.35774475    -0.33550
S400        S  0.55801980  0.66828819  0.42195066    -0.33550
H401        H  0.59965259  0.67298918  0.45555170     0.27820
H402        H  0.65834729  0.43648136  0.38814364     0.27810
H403        H  0.65854374  0.51297516  0.43156411     0.18400
H404        H  0.50371534  0.59323137  0.36103989     0.18410
C405        C  0.14986441  0.59342393  0.59005008    -0.07420
C406        C  0.20250717  0.60591437  0.58688264    -0.18550
C407        C  0.23708551  0.58024581  0.55341999     0.09780
C408        C  0.22151836  0.53697755  0.52485125    -0.07350
C409        C  0.17081521  0.52170689  0.53017603    -0.18580
C410        C  0.13534400  0.54835275  0.56087788     0.09810
S411        S  0.30119621  0.60324936  0.55056705    -0.33550
S412        S  0.07318895  0.51920775  0.55966924    -0.33550
H413        H  0.04660347  0.56304201  0.54363496     0.27820
H414        H  0.30114705  0.60877224  0.49524709     0.27810
H415        H  0.21841641  0.63594922  0.61039330     0.18400
H416        H  0.15787443  0.48806933  0.50912403     0.18410
C417        C  0.50150840  0.50837782  0.20931566    -0.07420
C418        C  0.49707542  0.56232360  0.21109253    -0.18550
C419        C  0.53272432  0.59630291  0.18692781     0.09780
C420        C  0.57621397  0.57668470  0.15867381    -0.07350
C421        C  0.58093578  0.52192515  0.16054603    -0.18580
C422        C  0.54477566  0.48868560  0.18350562     0.09810
S423        S  0.51536795  0.66349664  0.19191112    -0.33550
S424        S  0.55492895  0.42079402  0.17400854    -0.33550
H425        H  0.50503019  0.41237569  0.15736031     0.27820
H426        H  0.56253219  0.68610532  0.18426152     0.27810
H427        H  0.46478102  0.57864601  0.23146426     0.18400
H428        H  0.61127183  0.50259672  0.14054601     0.18410
C429        C  0.45556259  0.22313002  0.15821846    -0.07420
C430        C  0.42330871  0.18118422  0.17074194    -0.18550
C431        C  0.37167441  0.19167211  0.17761912     0.09780
C432        C  0.35921798  0.24342111  0.18364613    -0.07350
C433        C  0.38136794  0.27469735  0.14468021    -0.18580
C434        C  0.43337417  0.26817234  0.13626014     0.09810
S435        S  0.32624837  0.14276166  0.19339352    -0.33550
S436        S  0.46961579  0.31950788  0.10648583    -0.33550
H437        H  0.42827792  0.34967084  0.09021276     0.27820
H438        H  0.35410657  0.10351625  0.16869480     0.27810
H439        H  0.43819104  0.14335610  0.18009049     0.18400
H440        H  0.36245414  0.30895937  0.13147065     0.18410
C441        C  0.18975622  0.44630082  0.12385864    -0.07420
C442        C  0.23676841  0.42378184  0.11422516    -0.18550
C443        C  0.25942942  0.40110384  0.15837472     0.09780
C444        C  0.22778394  0.39128350  0.20258668    -0.07350
C445        C  0.17518357  0.38807943  0.19461271    -0.18580
C446        C  0.15558650  0.41422621  0.15093384     0.09810
S447        S  0.32728837  0.39975117  0.16207078    -0.33550
S448        S  0.08850988  0.42156606  0.14386251    -0.33550
H449        H  0.09223575  0.45602233  0.10071414     0.27820
H450        H  0.32865088  0.36685953  0.20654265     0.27810
H451        H  0.26001373  0.43830874  0.08233785     0.18400
H452        H  0.14973937  0.37526971  0.22578902     0.18410
C453        C  0.21132822  0.21351042  0.47628874    -0.07420
C454        C  0.16283282  0.23179061  0.46119922    -0.18550
C455        C  0.12692995  0.19546438  0.44606719     0.09780
C456        C  0.13741367  0.14457158  0.46092946    -0.07350
C457        C  0.18543354  0.12992957  0.44330248    -0.18580
C458        C  0.22516974  0.16320454  0.45771670     0.09810
S459        S  0.06959889  0.21433378  0.41428439    -0.33550
S460        S  0.28906202  0.13921040  0.45543773    -0.33550
H461        H  0.27830454  0.09351574  0.42827420     0.27820
H462        H  0.05494287  0.16343998  0.40324543     0.27810
H463        H  0.15282401  0.27220062  0.46163011     0.18400
H464        H  0.19277619  0.08987476  0.43472484     0.18410
C465        C  0.78705698  0.25573612  0.28806237    -0.07420
C466        C  0.78235409  0.25861844  0.34305256    -0.18550
C467        C  0.81215493  0.29241283  0.37359308     0.09780
C468        C  0.85072390  0.32462633  0.34914947    -0.07350
C469        C  0.85395968  0.32121235  0.29343539    -0.18580
C470        C  0.82404512  0.28787879  0.26350900     0.09810
S471        S  0.79316804  0.29395747  0.44239636    -0.33550
S472        S  0.83587444  0.28974296  0.19324724    -0.33550
H473        H  0.82480273  0.23769405  0.18584662     0.27820
H474        H  0.84034429  0.29952801  0.46561040     0.27810
H475        H  0.75313260  0.23592505  0.36248342     0.18400
H476        H  0.87991453  0.34523086  0.27134608     0.18410
C477        C  0.92039762  0.39873039  0.34080846    -0.07420
C478        C  0.91258475  0.45290756  0.33623690    -0.18550
C479        C  0.94188361  0.48532245  0.30302636     0.09780
C480        C  0.98236283  0.46510550  0.27317930    -0.07350
C481        C  0.99257260  0.41248928  0.27846376    -0.18580
C482        C  0.96324008  0.37941542  0.31119740     0.09810
S483        S  0.92464438  0.55253623  0.30017423    -0.33550
S484        S  0.98730297  0.31427646  0.31445502    -0.33550
H485        H  0.94143140  0.28793520  0.31574567     0.27820
H486        H  0.97336887  0.57210019  0.29056583     0.27810
H487        H  0.88352986  0.47160834  0.35905092     0.18400
H488        H  0.02432664  0.39673592  0.25667017     0.18410
C489        C  0.92487348  0.33496020  0.41731618    -0.07420
C490        C  0.92360675  0.28073962  0.42185852    -0.18550
C491        C  0.94917426  0.25362579  0.46129655     0.09780
C492        C  0.98081361  0.28011362  0.49731751    -0.07350
C493        C  0.98874611  0.33288430  0.48840792    -0.18580
C494        C  0.96238235  0.36042344  0.44872781     0.09810
S495        S  0.93610638  0.18522792  0.46323802    -0.33550
S496        S  0.97354630  0.42912495  0.44414610    -0.33550
H497        H  0.01742604  0.43061323  0.47518288     0.27820
H498        H  0.98662659  0.16950854  0.46727002     0.27810
H499        H  0.90070705  0.25799194  0.39590290     0.18400
H500        H  0.01409009  0.35322484  0.51432578     0.18410
C501        C  0.84813643  0.39826064  0.41420324    -0.07420
C502        C  0.85347535  0.40130376  0.47016889    -0.18550
C503        C  0.82009838  0.42815155  0.50287529     0.09780
C504        C  0.77826680  0.45339633  0.48117505    -0.07350
C505        C  0.77101459  0.45105880  0.42665486    -0.18580
C506        C  0.80395523  0.42362291  0.39316117     0.09810
S507        S  0.83441910  0.43025203  0.57245520    -0.33550
S508        S  0.78286116  0.42144927  0.32533932    -0.33550
H509        H  0.82954655  0.42050984  0.29971361     0.27820
H510        H  0.78411485  0.42621306  0.59007652     0.27810
H511        H  0.88231515  0.38083375  0.49113812     0.18400
H512        H  0.73924544  0.47141188  0.40968836     0.18410
C513        C  0.32579150  0.84733828  0.33253361    -0.07420
C514        C  0.34662498  0.81939960  0.28999993    -0.18550
C515        C  0.31770591  0.78700930  0.25786198     0.09780
C516        C  0.26481284  0.78129450  0.26672864    -0.07350
C517        C  0.24240067  0.81471855  0.30314269    -0.18580
C518        C  0.27120296  0.85047313  0.33239779     0.09810
S519        S  0.35271639  0.75033787  0.20995197    -0.33550
S520        S  0.23337593  0.90133374  0.36071191    -0.33550
H521        H  0.26848608  0.94096981  0.35370600     0.27820
H522        H  0.33054296  0.77659282  0.16708812     0.27810
H523        H  0.38683270  0.82013681  0.28319585     0.18400
H524        H  0.20152187  0.81518383  0.30650689     0.18410
C525        C  0.46131479  0.98211587  0.27696359    -0.07420
C526        C  0.48311996  0.93674741  0.29689276    -0.18550
C527        C  0.45508782  0.89898213  0.32566249     0.09780
C528        C  0.40195123  0.90672417  0.33747528    -0.07350
C529        C  0.38049886  0.95103473  0.31320640    -0.18580
C530        C  0.40910919  0.98879407  0.28584035     0.09810
S531        S  0.49175486  0.84186712  0.34035353    -0.33550
S532        S  0.37606553  0.04521888  0.26385659    -0.33550
H533        H  0.41753765  0.07902318  0.26542513     0.27820
H534        H  0.45507621  0.80544670  0.32732824     0.27810
H535        H  0.52279773  0.92985803  0.28853916     0.18400
H536        H  0.34068862  0.95816407  0.31794329     0.18410
C537        C  0.33828608  0.90405187  0.41836120    -0.07420
C538        C  0.35655436  0.95397100  0.43141063    -0.18550
C539        C  0.33628858  0.98327230  0.47314382     0.09780
C540        C  0.29409300  0.96472586  0.50171446    -0.07350
C541        C  0.27846128  0.91405002  0.49260973    -0.18580
C542        C  0.30182622  0.88268554  0.45463813     0.09810
S543        S  0.36715126  0.04238133  0.49123948    -0.33550
S544        S  0.28172703  0.81618916  0.45334871    -0.33550
H545        H  0.25868221  0.81432552  0.50356455     0.27820
H546        H  0.39730579  0.04764531  0.44553067     0.27810
H547        H  0.38947139  0.96944063  0.41162649     0.18400
H548        H  0.24771776  0.89837923  0.51622502     0.18410
C549        C  0.45388922  0.76779364  0.47959963    -0.07420
C550        C  0.41935769  0.74521786  0.44538933    -0.18550
C551        C  0.38937102  0.77472014  0.41024929     0.09780
C552        C  0.39550572  0.83014464  0.40706620    -0.07350
C553        C  0.43044462  0.85143487  0.44322646    -0.18580
C554        C  0.45807560  0.82191914  0.47927546     0.09810
S555        S  0.34396646  0.73752251  0.37361081    -0.33550
S556        S  0.49688349  0.85670473  0.52524581    -0.33550
H557        H  0.48710303  0.82322099  0.56815162     0.27820
H558        H  0.34115161  0.69471512  0.40802358     0.27810
H559        H  0.41653374  0.70360571  0.44561433     0.18400
H560        H  0.43662663  0.89259353  0.44355744     0.18410
C561        C  0.28162257  0.27489657  0.78985091    -0.07420
C562        C  0.27690961  0.27807097  0.84476526    -0.18550
C563        C  0.30954916  0.30878707  0.87518123     0.09780
C564        C  0.34880570  0.33941156  0.85031599    -0.07350
C565        C  0.35110348  0.33676130  0.79416817    -0.18580
C566        C  0.31907832  0.30501835  0.76452902     0.09810
S567        S  0.29679617  0.30645207  0.94541975    -0.33550
S568        S  0.32746803  0.30573385  0.69371753    -0.33550
H569        H  0.27624522  0.29873509  0.68121387     0.27820
H570        H  0.34690602  0.30489975  0.96231597     0.27810
H571        H  0.24784590  0.25539949  0.86451423     0.18400
H572        H  0.37604291  0.36118474  0.77150424     0.18410
C573        C  0.28663728  0.48744217  0.96843671    -0.07420
C574        C  0.27599013  0.47387946  0.91647992    -0.18550
C575        C  0.30649082  0.43963097  0.88820618     0.09780
C576        C  0.34658104  0.41158844  0.91396915    -0.07350
C577        C  0.35143119  0.41992342  0.96898322    -0.18580
C578        C  0.32646091  0.46100801  0.99443107     0.09810
S579        S  0.29136371  0.43697175  0.81886605    -0.33550
S580        S  0.35091286  0.48258045  0.05695201    -0.33550
H581        H  0.39395948  0.45079788  0.05836768     0.27820
H582        H  0.33965150  0.45087032  0.80073848     0.27810
H583        H  0.24581219  0.49361730  0.89580992     0.18400
H584        H  0.37757762  0.39747063  0.99190704     0.18410
C585        C  0.42490034  0.34469970  0.91702078    -0.07420
C586        C  0.45921302  0.37281128  0.94911687    -0.18550
C587        C  0.50008625  0.34991497  0.97635612     0.09780
C588        C  0.50795497  0.29618742  0.97384461    -0.07350
C589        C  0.47523308  0.26792437  0.94195296    -0.18580
C590        C  0.43629380  0.29052483  0.91210956     0.09810
S591        S  0.54254227  0.39223207  0.01054001    -0.33550
S592        S  0.41022606  0.24757937  0.86335675    -0.33550
H593        H  0.41371395  0.20199628  0.89364852     0.27820
H594        H  0.58666958  0.36689993  0.99361576     0.27810
H595        H  0.45560859  0.41422540  0.95122469     0.18400
H596        H  0.48201831  0.22705583  0.93785497     0.18410
C597        C  0.48778153  0.46916325  0.77897076    -0.07420
C598        C  0.45748257  0.49417621  0.81555873    -0.18550
C599        C  0.42724404  0.46732000  0.85200842     0.09780
C600        C  0.42064444  0.41216499  0.84740784    -0.07350
C601        C  0.45518617  0.38749589  0.81274440    -0.18580
C602        C  0.48745895  0.41488027  0.77828472     0.09810
S603        S  0.40538350  0.50724589  0.90568325    -0.33550
S604        S  0.52492924  0.37809995  0.73253094    -0.33550
H605        H  0.51547766  0.41082410  0.68911700     0.27820
H606        H  0.44483929  0.54371929  0.90416990     0.27810
H607        H  0.45946320  0.53583456  0.81733976     0.18400
H608        H  0.45578442  0.34585460  0.81110284     0.18410
C609        C  0.13756927  0.82498578  0.06193919    -0.07420
C610        C  0.11440645  0.84118934  0.01512425    -0.18550
C611        C  0.14637508  0.86540394  0.97900709     0.09780
C612        C  0.19175239  0.88567933  0.99905920    -0.07350
C613        C  0.19195415  0.89768016  0.05329721    -0.18580
C614        C  0.16830067  0.86174070  0.08663302     0.09810
S615        S  0.13766879  0.84846253  0.91135266    -0.33550
S616        S  0.19220705  0.85335793  0.15257978    -0.33550
H617        H  0.16419668  0.80862157  0.16430548     0.27820
H618        H  0.18295711  0.87167402  0.89536634     0.27810
H619        H  0.08642658  0.81642767  0.99790746     0.18400
H620        H  0.22216739  0.92076636  0.06951026     0.18410
C621        C  0.12318196  0.03670492  0.83056728    -0.07420
C622        C  0.10625762  0.98528499  0.83506737    -0.18550
C623        C  0.14665992  0.95009063  0.83643403     0.09780
C624        C  0.19188086  0.96864405  0.85944131    -0.07350
C625        C  0.18767876  0.01319411  0.89080307    -0.18580
C626        C  0.15641501  0.05180000  0.87059008     0.09810
S627        S  0.14502537  0.89770100  0.78979447    -0.33550
S628        S  0.17810642  0.11715796  0.87590063    -0.33550
H629        H  0.13811381  0.13841378  0.84695324     0.27820
H630        H  0.18641797  0.86955177  0.80861994     0.27810
H631        H  0.07260693  0.97428406  0.81367124     0.18400
H632        H  0.21898362  0.02505822  0.91510359     0.18410
C633        C  0.19651039  0.73569612  0.72955176    -0.07420
C634        C  0.19665933  0.74284445  0.67443119    -0.18550
C635        C  0.16852381  0.71137048  0.63989805     0.09780
C636        C  0.13950735  0.66834184  0.65981250    -0.07350
C637        C  0.13630976  0.66475747  0.71594835    -0.18580
C638        C  0.16391894  0.69701516  0.75014756     0.09810
S639        S  0.17339705  0.72660821  0.57001521    -0.33550
S640        S  0.15439677  0.68738816  0.82004831    -0.33550
H641        H  0.15232981  0.74032833  0.83127042     0.27820
H642        H  0.19277445  0.77678512  0.57492729     0.27810
H643        H  0.22040992  0.77286328  0.65771987     0.18400
H644        H  0.11189207  0.63659838  0.73454164     0.18410
C645        C  0.18133409  0.10681108  0.08313819    -0.07420
C646        C  0.23230722  0.12495386  0.08080439    -0.18550
C647        C  0.27143612  0.09910699  0.05331879     0.09780
C648        C  0.26172764  0.05223687  0.02759812    -0.07350
C649        C  0.21192052  0.03385919  0.02863148    -0.18580
C650        C  0.17186293  0.06030246  0.05421128     0.09810
S651        S  0.33304343  0.12889219  0.05124316    -0.33550
S652        S  0.10970690  0.03222905  0.04800056    -0.33550
H653        H  0.12087826  0.99649830  0.00817500     0.27820
H654        H  0.36094988  0.08287751  0.05029905     0.27810
H655        H  0.24216599  0.16087374  0.09935322     0.18400
H656        H  0.20424374  0.99839188  0.00818410     0.18410
C657        C  0.52763579  0.77127390  0.82885189    -0.07420
C658        C  0.53655737  0.72530060  0.85799861    -0.18550
C659        C  0.57745343  0.69503747  0.84280614     0.09780
C660        C  0.60896015  0.71614624  0.80360871    -0.07350
C661        C  0.61555771  0.76964003  0.80651433    -0.18580
C662        C  0.57012581  0.79738714  0.80689688     0.09810
S663        S  0.57306227  0.62667610  0.85425974    -0.33550
S664        S  0.56693543  0.85356406  0.76447480    -0.33550
H665        H  0.52524164  0.87628488  0.78932764     0.27820
H666        H  0.61205773  0.61406081  0.81857717     0.27810
H667        H  0.50685834  0.70689505  0.88094845     0.18400
H668        H  0.64756470  0.78661749  0.78635941     0.18410
C669        C  0.57332183  0.64360289  0.08383312    -0.07420
C670        C  0.57827353  0.69804165  0.08111150    -0.18550
C671        C  0.54554854  0.73053770  0.05254814     0.09780
C672        C  0.50465512  0.71019605  0.02309449    -0.07350
C673        C  0.49796300  0.65662818  0.02578782    -0.18580
C674        C  0.52950913  0.62368079  0.05629241     0.09810
S675        S  0.55879464  0.79837950  0.05763945    -0.33550
S676        S  0.50563501  0.55823144  0.06023703    -0.33550
H677        H  0.55052777  0.53085835  0.06431094     0.27820
H678        H  0.55043748  0.80821512  0.00406397     0.27810
H679        H  0.60757284  0.71731842  0.10262233     0.18400
H680        H  0.46592345  0.64011865  0.00552281     0.18410
C681        C  0.50833452  0.01763046  0.68750882    -0.07420
C682        C  0.54016462  0.99402757  0.65069427    -0.18550
C683        C  0.57704791  0.02200831  0.62129726     0.09780
C684        C  0.58615583  0.07613928  0.63131977    -0.07350
C685        C  0.55197652  0.09898157  0.66740854    -0.18580
C686        C  0.51351231  0.07162119  0.69383024     0.09810
S687        S  0.60697419  0.98386060  0.57099496    -0.33550
S688        S  0.47037838  0.10965885  0.73282039    -0.33550
H689        H  0.42708543  0.08215175  0.71746809     0.27820
H690        H  0.58652821  0.01250418  0.52903767     0.27810
H691        H  0.53594882  0.95303452  0.64432068     0.18400
H692        H  0.55454351  0.13996341  0.67441560     0.18410
C693        C  0.58118220  0.91115098  0.87536705    -0.07420
C694        C  0.59660216  0.95680328  0.84926660    -0.18550
C695        C  0.59295669  0.00144057  0.88030844     0.09780
C696        C  0.58735679  0.99313216  0.93578991    -0.07350
C697        C  0.60490802  0.94534997  0.95674471    -0.18580
C698        C  0.60800286  0.90394178  0.92181114     0.09810
S699        S  0.58080860  0.06194606  0.84763988    -0.33550
S700        S  0.62634045  0.84084256  0.94247048    -0.33550
H701        H  0.63480863  0.82377416  0.89098324     0.27820
H702        H  0.53120921  0.06564658  0.86774834     0.27810
H703        H  0.59300756  0.96020388  0.80681120     0.18400
H704        H  0.60855886  0.93829845  0.99868341     0.18410
C705        C  0.02161270  0.10334061  0.83642291    -0.07420
C706        C  0.96973404  0.09123391  0.83165037    -0.18550
C707        C  0.93841317  0.13519836  0.82841832     0.09780
C708        C  0.95799036  0.18074746  0.85188398    -0.07350
C709        C  0.99750204  0.17424441  0.88852971    -0.18580
C710        C  0.02994777  0.13250469  0.88139611     0.09810
S711        S  0.88645267  0.13356458  0.78249836    -0.33550
S712        S  0.06144897  0.10433373  0.93674039    -0.33550
H713        H  0.03723742  0.13604753  0.97357830     0.27820
H714        H  0.86167135  0.17779505  0.80060612     0.27810
H715        H  0.95899261  0.05737242  0.80968160     0.18400
H716        H  0.00587307  0.20304382  0.91782277     0.18410
C717        C  0.87743494  0.17392028  0.98470844    -0.07420
C718        C  0.90135544  0.17594014  0.03440013    -0.18550
C719        C  0.87418277  0.15402002  0.07660698     0.09780
C720        C  0.83220222  0.12372058  0.06363577    -0.07350
C721        C  0.83874012  0.09620532  0.01634309    -0.18580
C722        C  0.85394553  0.12672268  0.97285676     0.09810
S723        S  0.88992112  0.16938958  0.14334771    -0.33550
S724        S  0.82761445  0.11421214  0.90916410    -0.33550
H725        H  0.85143392  0.15671617  0.88572029     0.27820
H726        H  0.84949586  0.14148354  0.16598388     0.27810
H727        H  0.92914570  0.20536238  0.04269668     0.18400
H728        H  0.81488008  0.06322596  0.00974321     0.18410
C729        C  0.66193930  0.14323868  0.64143016    -0.07420
C730        C  0.66099694  0.13326712  0.69687827    -0.18550
C731        C  0.69329076  0.15831426  0.73276915     0.09780
C732        C  0.72861910  0.19553931  0.71480540    -0.07350
C733        C  0.73215256  0.20387081  0.65992201    -0.18580
C734        C  0.70030752  0.17864265  0.62347288     0.09810
S735        S  0.68908193  0.13885760  0.80113576    -0.33550
S736        S  0.70724093  0.19634666  0.55446640    -0.33550
H737        H  0.75313060  0.22341942  0.55844862     0.27820
H738        H  0.74161469  0.14029444  0.80957510     0.27810
H739        H  0.63630038  0.10420937  0.71344455     0.18400
H740        H  0.75908785  0.23209637  0.64538242     0.18410
C741        C  0.04092661  0.25369033  0.03339523    -0.07420
C742        C  0.07995597  0.22857488  0.00583127    -0.18550
C743        C  0.11323531  0.19298781  0.03017523     0.09780
C744        C  0.10737611  0.17856894  0.08469683    -0.07350
C745        C  0.07047059  0.20780373  0.11284278    -0.18580
C746        C  0.03732285  0.24362575  0.08839539     0.09810
S747        S  0.16606348  0.17528771  0.98979709    -0.33550
S748        S  0.99185593  0.27712118  0.12907126    -0.33550
H749        H  0.00017507  0.24934978  0.17617158     0.27820
H750        H  0.19964409  0.20678946  0.01771602     0.27810
H751        H  0.08550042  0.23751503  0.96431169     0.18400
H752        H  0.06688127  0.20142455  0.15497383     0.18410
C753        C  0.77450538  0.52637506  0.82168414    -0.07420
C754        C  0.73490202  0.54360147  0.85460863    -0.18550
C755        C  0.71918401  0.59457051  0.84865415     0.09780
C756        C  0.73958317  0.62121535  0.80531598    -0.07350
C757        C  0.79233389  0.61571303  0.80268389    -0.18580
C758        C  0.80833323  0.56413637  0.80058636     0.09810
S759        S  0.69118565  0.62776236  0.90330286    -0.33550
S760        S  0.86205802  0.54955320  0.75991029    -0.33550
H761        H  0.87912713  0.51040042  0.79379057     0.27820
H762        H  0.69225833  0.67639207  0.87820844     0.27810
H763        H  0.71635197  0.51808958  0.88238349     0.18400
H764        H  0.81466920  0.64482926  0.78224853     0.18410
C765        C  0.64580789  0.57239375  0.08419257    -0.07420
C766        C  0.63374956  0.56193875  0.03046516    -0.18550
C767        C  0.65647061  0.52166186  0.00107460     0.09780
C768        C  0.69917240  0.49561256  0.02107135    -0.07350
C769        C  0.71518521  0.50929295  0.07192291    -0.18580
C770        C  0.68913216  0.54479510  0.10387501     0.09810
S771        S  0.62896077  0.50336138  0.93898618    -0.33550
S772        S  0.71516227  0.55076399  0.16942630    -0.33550
H773        H  0.66934735  0.54930949  0.19726394     0.27820
H774        H  0.58489776  0.53341601  0.94299492     0.27810
H775        H  0.60469055  0.58358334  0.01093076     0.18400
H776        H  0.74798130  0.49024206  0.08846267     0.18410
C777        C  0.00706664  0.51256276  0.70195144    -0.07420
C778        C  0.05921816  0.51373345  0.71283906    -0.18550
C779        C  0.09308641  0.54933130  0.68920998     0.09780
C780        C  0.07474615  0.58949707  0.65483640    -0.07350
C781        C  0.02134880  0.58802283  0.64532071    -0.18580
C782        C  0.98877063  0.54962002  0.66603189     0.09810
S783        S  0.15891361  0.53619874  0.70385609    -0.33550
S784        S  0.92457217  0.54944596  0.64320123    -0.33550
H785        H  0.92533248  0.49694628  0.63020889     0.27820
H786        H  0.18189068  0.58192387  0.68784204     0.27810
H787        H  0.07451694  0.48503402  0.73965857     0.18400
H788        H  0.00389273  0.61461070  0.61819154     0.18410
C789        C  0.96943796  0.58539794  0.94668004    -0.07420
C790        C  0.92522899  0.59619193  0.97706058    -0.18550
C791        C  0.87878995  0.59661463  0.95044113     0.09780
C792        C  0.88086874  0.57495555  0.90018420    -0.07350
C793        C  0.91958454  0.59782471  0.86935067    -0.18580
C794        C  0.96798171  0.59689718  0.89189991     0.09810
S795        S  0.81945984  0.60175397  0.98495347    -0.33550
S796        S  0.02399986  0.60113846  0.85100661    -0.33550
H797        H  0.99864811  0.60746008  0.80269164     0.27820
H798        H  0.84032350  0.62312444  0.03081361     0.27810
H799        H  0.92566808  0.59613162  0.01980146     0.18400
H800        H  0.91500262  0.60493032  0.82777388     0.18410
C801        C  0.76678305  0.98772581  0.15077009    -0.07420
C802        C  0.80754149  0.02192238  0.14153703    -0.18550
C803        C  0.85478641  0.99983202  0.12954529     0.09780
C804        C  0.85863516  0.94731874  0.14081964    -0.07350
C805        C  0.81940110  0.91953813  0.11722801    -0.18580
C806        C  0.77105339  0.93600577  0.13183719     0.09810
S807        S  0.91065435  0.03784266  0.12363687    -0.33550
S808        S  0.72584911  0.88520007  0.14617214    -0.33550
H809        H  0.72099139  0.89718988  0.20005574     0.27820
H810        H  0.94380864  0.99562229  0.11946209     0.27810
H811        H  0.80400694  0.06267898  0.14886825     0.18400
H812        H  0.82408759  0.87935060  0.10803714     0.18410
C813        C  0.00459537  0.78537865  0.14186452    -0.07420
C814        C  0.03925879  0.82634992  0.14606969    -0.18550
C815        C  0.01895712  0.87601326  0.14972912     0.09780
C816        C  0.96780050  0.87759938  0.16369081    -0.07350
C817        C  0.93819006  0.84769180  0.13074798    -0.18580
C818        C  0.95424728  0.79686797  0.12470259     0.09810
S819        S  0.05723336  0.93237750  0.15503152    -0.33550
S820        S  0.90694182  0.74952902  0.10779612    -0.33550
H821        H  0.87304554  0.78424531  0.08385538     0.27820
H822        H  0.10124040  0.90594200  0.16930364     0.27810
H823        H  0.07892306  0.81951381  0.15229200     0.18400
H824        H  0.89888323  0.85529244  0.12817178     0.18410
C825        C  0.72321464  0.71115286  0.21091852    -0.07420
C826        C  0.72691976  0.70557361  0.15585714    -0.18550
C827        C  0.69277685  0.67496193  0.12600562     0.09780
C828        C  0.65129683  0.64713794  0.15092799    -0.07350
C829        C  0.64957753  0.65197540  0.20707521    -0.18580
C830        C  0.68366656  0.68314435  0.23635727     0.09810
S831        S  0.70813367  0.67294346  0.05626243    -0.33550
S832        S  0.67425167  0.68521345  0.30694642    -0.33550
H833        H  0.72487836  0.69490184  0.32008767     0.27820
H834        H  0.66002085  0.66456190  0.03597254     0.27810
H835        H  0.75696794  0.72609319  0.13528040     0.18400
H836        H  0.62138729  0.63089876  0.22952452     0.18410
C837        C  0.04980402  0.04038219  0.22940008    -0.07420
C838        C  0.02473264  0.07338289  0.19397374    -0.18550
C839        C  0.04975361  0.09763688  0.15112492     0.09780
C840        C  0.10392618  0.09635198  0.14725670    -0.07350
C841        C  0.12612291  0.05542582  0.17660598    -0.18580
C842        C  0.10157554  0.03082406  0.21939080     0.09810
S843        S  0.00796464  0.11534640  0.09785236    -0.33550
S844        S  0.13923648  0.98826713  0.25961110    -0.33550
H845        H  0.12121477  0.00852552  0.30753029     0.27820
H846        H  0.04328162  0.10893761  0.05755895     0.27810
H847        H  0.98410323  0.07739133  0.19725150     0.18400
H848        H  0.16382796  0.04258580  0.16695772     0.18410
C849        C  0.83154635  0.83617689  0.54198502    -0.07420
C850        C  0.84886856  0.78822542  0.56028916    -0.18550
C851        C  0.81611859  0.74689032  0.54942610     0.09780
C852        C  0.76594240  0.76099555  0.53339399    -0.07350
C853        C  0.74743165  0.80895849  0.55190193    -0.18580
C854        C  0.78346920  0.84652790  0.56257774     0.09810
S855        S  0.84118996  0.68221236  0.54772223    -0.33550
S856        S  0.76743887  0.90682838  0.59175266    -0.33550
H857        H  0.71718981  0.89328731  0.60428766     0.27820
H858        H  0.88797591  0.69372199  0.57105587     0.27810
H859        H  0.88899538  0.78119229  0.56347803     0.18400
H860        H  0.70763372  0.81863696  0.55271818     0.18410
C861        C  0.07775007  0.66187279  0.58241167    -0.07420
C862        C  0.08125772  0.65374621  0.52689388    -0.18550
C863        C  0.05173447  0.68030061  0.48991897     0.09780
C864        C  0.01873287  0.71924406  0.50652291    -0.07350
C865        C  0.01636210  0.73065127  0.56038318    -0.18580
C866        C  0.04419887  0.70271189  0.59835739     0.09810
S867        S  0.05904788  0.66309602  0.42137944    -0.33550
S868        S  0.03536417  0.72464570  0.66538834    -0.33550
H869        H  0.03548938  0.67661683  0.69058331     0.27820
H870        H  0.05477825  0.71337582  0.40087759     0.27810
H871        H  0.10751904  0.62674694  0.51024772     0.18400
H872        H  0.99203690  0.76172739  0.57315027     0.18410
C873        C  0.71799954  0.03217202  0.48174884    -0.07420
C874        C  0.72927082  0.02778527  0.53544133    -0.18550
C875        C  0.70066971  0.05292295  0.57464365     0.09780
C876        C  0.65968041  0.08650143  0.56021225    -0.07350
C877        C  0.65433735  0.09542435  0.50473216    -0.18580
C878        C  0.68098515  0.06771928  0.46632097     0.09810
S879        S  0.71991392  0.03887662  0.64149025    -0.33550
S880        S  0.66643203  0.08073310  0.39788270    -0.33550
H881        H  0.71513131  0.07175764  0.37749574     0.27820
H882        H  0.67126911  0.02996466  0.66157791     0.27810
H883        H  0.76051919  0.00366623  0.54701000     0.18400
H884        H  0.63064428  0.12542724  0.48923026     0.18410
C885        C  0.89344639  0.92772288  0.56637399    -0.07420
C886        C  0.88070175  0.97807782  0.58065275    -0.18550
C887        C  0.91950914  0.01444547  0.57194645     0.09780
C888        C  0.96914980  0.99359924  0.56323453    -0.07350
C889        C  0.97887817  0.94412418  0.58523554    -0.18580
C890        C  0.93706491  0.91194120  0.59314237     0.09810
S891        S  0.90344098  0.08175356  0.56481018    -0.33550
S892        S  0.94140004  0.85089719  0.62634567    -0.33550
H893        H  0.99247935  0.85628162  0.64043365     0.27820
H894        H  0.85198633  0.07672328  0.57849052     0.27810
H895        H  0.84161661  0.98989926  0.58184914     0.18400
H896        H  0.01675015  0.92944722  0.59093353     0.18410
C897        C  0.82568429  0.89795028  0.90489568    -0.07420
C898        C  0.79281347  0.87268602  0.94168522    -0.18550
C899        C  0.75919044  0.89941446  0.97614649     0.09780
C900        C  0.75555100  0.95387032  0.97378424    -0.07350
C901        C  0.79106783  0.97880862  0.94088995    -0.18580
C902        C  0.82909140  0.95267733  0.91235951     0.09810
S903        S  0.72033191  0.86258114  0.02093859    -0.33550
S904        S  0.88211705  0.99363912  0.89449619    -0.33550
H905        H  0.92067225  0.95773249  0.90161995     0.27820
H906        H  0.74282955  0.81431984  0.01222057     0.27810
H907        H  0.79224769  0.83126918  0.94254193     0.18400
H908        H  0.79101790  0.02013609  0.93939006     0.18410
C909        C  0.89305991  0.89686077  0.82534641    -0.07420
C910        C  0.94347095  0.88012815  0.81560221    -0.18550
C911        C  0.97468986  0.90193555  0.77556360     0.09780
C912        C  0.95946008  0.94701361  0.74835384    -0.07350
C913        C  0.90955458  0.96334154  0.75634167    -0.18580
C914        C  0.87562457  0.93716035  0.79045541     0.09810
S915        S  0.03028974  0.86732863  0.75510927    -0.33550
S916        S  0.81076968  0.95880917  0.78849124    -0.33550
H917        H  0.81286447  0.98346780  0.73878233     0.27820
H918        H  0.02661844  0.82610488  0.79135635     0.27810
H919        H  0.95749025  0.84635788  0.83567666     0.18400
H920        H  0.89620351  0.99647910  0.73427248     0.18410
C921        C  0.82337373  0.83575155  0.81957245    -0.07420
C922        C  0.85121069  0.80411262  0.78408119    -0.18550
C923        C  0.82988521  0.77985589  0.74028519     0.09780
C924        C  0.77832786  0.78729552  0.72899607    -0.07350
C925        C  0.75050120  0.82039540  0.76146005    -0.18580
C926        C  0.77085726  0.84324078  0.80708096     0.09810
S927        S  0.87026682  0.74118596  0.69841975    -0.33550
S928        S  0.72740598  0.88216505  0.84515824    -0.33550
H929        H  0.68398662  0.87705134  0.81392215     0.27820
H930        H  0.91640103  0.75132657  0.72362974     0.27810
H931        H  0.89075444  0.79723323  0.79161575     0.18400
H932        H  0.71188271  0.82830110  0.75075685     0.18410
C933        C  0.88656459  0.82248575  0.89829749    -0.07420
C934        C  0.92288875  0.84218614  0.93339411    -0.18550
C935        C  0.95491978  0.81116112  0.96455341     0.09780
C936        C  0.95399354  0.75664481  0.96083028    -0.07350
C937        C  0.91574407  0.73601606  0.92916436    -0.18580
C938        C  0.88064746  0.76703982  0.90089611     0.09810
S939        S  0.99264524  0.84579398  0.01062858    -0.33550
S940        S  0.82779502  0.73059492  0.87576156    -0.33550
H941        H  0.79012884  0.76646179  0.88779608     0.27820
H942        H  0.01166103  0.80252602  0.03692143     0.27810
H943        H  0.92624380  0.88319799  0.93744680     0.18400
H944        H  0.91181907  0.69468204  0.92797000     0.18410
loop_ 
_geom_bond_atom_site_label_1 
_geom_bond_atom_site_label_2 
_geom_bond_distance 
_geom_bond_site_symmetry_2 
_ccdc_geom_bond_type 
C1          C897   1.606       .  S
C1          C909   1.600       .  S
C1          C921   1.584       .  S
C1          C933   1.611       .  S
N2            N3   1.329       .  A
N2            N8   1.303       .  A
N2          Mn31   2.216       .  S
N3           C10   1.358   1_565  A
N4            N6   1.326       .  A
N4            N5   1.322       .  A
N4          Mn20   2.183       .  S
N5           C11   1.353       .  A
N6            N7   1.314       .  A
N6          Mn31   2.202       .  S
N7           C11   1.353       .  A
N8            N9   1.321   1_565  A
N8          Mn20   2.151       .  S
N9           C10   1.346       .  A
C10         C873   1.485       .  S
C11         C804   1.499       .  S
N12          N18   1.300       .  A
N12          N13   1.327   1_655  A
N12         Mn42   2.207       .  S
N13          C21   1.358   1_565  A
N14          N15   1.320       .  A
N14          N16   1.324       .  A
N14         Mn20   2.191       .  S
N15          C22   1.351       .  A
N16          N17   1.322       .  A
N16         Mn42   2.185       .  S
N17          C22   1.354       .  A
N18          N19   1.323   1_565  A
N18         Mn20   2.170       .  S
N19          C21   1.354   1_655  A
Mn20        Cl44   2.548       .  S
C21         C837   1.507       .  S
C22         C885   1.508       .  S
N23          N24   1.333       .  A
N23          N29   1.310       .  A
N23         Mn31   2.230       .  S
N24          C32   1.358       .  A
N25          N27   1.329       .  A
N25          N26   1.315       .  A
N25         Mn43   2.189       .  S
N26          C33   1.346       .  A
N27          N28   1.325       .  A
N27         Mn31   2.179       .  S
N28          C33   1.350       .  A
N29          N30   1.338       .  A
N29         Mn43   2.259       .  S
N30          C32   1.366       .  A
Mn31        Cl44   2.547       .  S
C32         C825   1.539       .  S
C33         C849   1.503       .  S
N34          N35   1.322   1_655  A
N34          N40   1.305       .  A
N34         Mn42   2.156       .  S
N35          C45   1.348   1_455  A
N36          N37   1.320       .  A
N36          N38   1.333       .  A
N36         Mn43   2.227       .  S
N37          C46   1.356       .  A
N38          N39   1.316       .  A
N38         Mn42   2.168       .  S
N39          C46   1.338       .  A
N40          N41   1.328       .  A
N40         Mn43   2.225       .  S
N41          C45   1.358       .  A
Mn42        Cl44   2.554       .  S
Mn43        Cl44   2.541       .  S
C45         C864   1.486   1_655  S
C46         C816   1.489       .  S
N47          N48   1.318       .  A
N47          N53   1.321       .  A
N47         Mn76   2.188       .  S
N48          C55   1.351       .  A
N49          N51   1.305       .  A
N49          N50   1.330   1_556  A
N49         Mn65   2.230       .  S
N50          C56   1.360   1_655  A
N51          N52   1.329   1_655  A
N51         Mn76   2.214       .  S
N52          C56   1.359   1_556  A
N53          N54   1.323       .  A
N53         Mn65   2.170       .  S
N54          C55   1.350       .  A
C55         C792   1.501       .  S
C56         C741   1.525       .  S
N57          N63   1.326       .  A
N57          N58   1.330       .  A
N57         Mn87   2.247       .  S
N58          C66   1.361       .  A
N59          N60   1.319   1_556  A
N59          N61   1.308       .  A
N59         Mn65   2.157       .  S
N60          C67   1.348   1_554  A
N61          N62   1.339       .  A
N61         Mn87   2.287       .  S
N62          C67   1.371       .  A
N63          N64   1.303       .  A
N63         Mn65   2.145       .  S
N64          C66   1.333       .  A
Mn65        Cl89   2.564       .  S
C66         C717   1.479       .  S
C67         C768   1.522   1_556  S
N68          N69   1.308       .  A
N68          N74   1.329       .  A
N68         Mn76   2.176       .  S
N69          C77   1.340       .  A
N70          N72   1.306       .  A
N70          N71   1.338       .  A
N70         Mn88   2.277       .  S
N71          C78   1.373       .  A
N72          N73   1.316       .  A
N72         Mn76   2.142       .  S
N73          C78   1.343       .  A
N74          N75   1.323       .  A
N74         Mn88   2.203       .  S
N75          C77   1.345       .  A
Mn76        Cl89   2.533       .  S
C77         C708   1.464       .  S
C78         C777   1.514   1_655  S
N79          N80   1.311       .  A
N79          N85   1.333       .  A
N79         Mn87   2.190       .  S
N80          C90   1.337       .  A
N81          N82   1.327       .  A
N81          N83   1.315       .  A
N81         Mn88   2.226       .  S
N82          C91   1.356       .  A
N83          N84   1.330       .  A
N83         Mn87   2.229       .  S
N84          C91   1.360       .  A
N85          N86   1.316       .  A
N85         Mn88   2.199       .  S
N86          C90   1.343       .  A
Mn87        Cl89   2.532       .  S
Mn88        Cl89   2.547       .  S
C90         C753   1.456       .  S
C91         C732   1.518       .  S
N92          N93   1.338       .  A
N92          N98   1.309       .  A
N92        Mn121   2.288       .  S
N93         C100   1.371       .  A
N94          N96   1.325       .  A
N94          N95   1.306   1_556  A
N94        Mn110   2.150       .  S
N95         C101   1.333   1_554  A
N96          N97   1.324       .  A
N96        Mn121   2.228       .  S
N97         C101   1.359       .  A
N98          N99   1.319   1_556  A
N98        Mn110   2.165       .  S
N99         C100   1.349   1_554  A
C100        C672   1.527   1_556  S
C101        C612   1.469       .  S
N102        N108   1.306       .  A
N102        N103   1.330   1_565  A
N102       Mn132   2.211       .  S
N103        C111   1.358       .  A
N104        N105   1.328       .  A
N104        N106   1.320       .  A
N104       Mn110   2.195       .  S
N105        C112   1.358       .  A
N106        N107   1.311       .  A
N106       Mn132   2.157       .  S
N107        C112   1.342       .  A
N108        N109   1.330   1_556  A
N108       Mn110   2.233       .  S
N109        C111   1.357   1_564  A
Mn110      Cl134   2.546       .  S
C111        C648   1.511   1_556  S
C112        C693   1.503       .  S
N113        N114   1.331       .  A
N113        N119   1.315       .  A
N113       Mn121   2.225       .  S
N114        C122   1.361       .  A
N115        N117   1.332       .  A
N115        N116   1.324       .  A
N115       Mn133   2.217       .  S
N116        C123   1.350       .  A
N117        N118   1.304       .  A
N117       Mn121   2.178       .  S
N118        C123   1.333       .  A
N119        N120   1.327       .  A
N119       Mn133   2.235       .  S
N120        C122   1.357       .  A
Mn121      Cl134   2.547       .  S
C122        C633   1.523       .  S
C123        C657   1.464       .  S
N124        N125   1.314   1_565  A
N124        N130   1.305       .  A
N124       Mn132   2.137       .  S
N125        C135   1.340   1_545  A
N126        N127   1.323       .  A
N126        N128   1.328       .  A
N126       Mn133   2.214       .  S
N127        C136   1.347       .  A
N128        N129   1.306       .  A
N128       Mn132   2.153       .  S
N129        C136   1.337       .  A
N130        N131   1.339       .  A
N130       Mn133   2.273       .  S
N131        C135   1.373       .  A
Mn132      Cl134   2.548       .  S
Mn133      Cl134   2.528       .  S
C135        C681   1.510   1_565  S
C136        C624   1.471       .  S
C137        C564   1.589       .  S
C137        C576   1.578       .  S
C137        C585   1.602       .  S
C137        C600   1.587       .  S
C138        C513   1.594       .  S
C138        C528   1.612       .  S
C138        C537   1.590       .  S
C138        C552   1.590       .  S
C139        C468   1.602       .  S
C139        C477   1.605       .  S
C139        C489   1.589       .  S
C139        C501   1.595       .  S
N140        N141   1.327       .  A
N140        N146   1.318       .  A
N140       Mn169   2.210       .  S
N141        C148   1.353       .  A
N142        N144   1.313       .  A
N142        N143   1.319   1_545  A
N142       Mn158   2.191       .  S
N143        C149   1.350       .  A
N144        N145   1.330       .  A
N144       Mn169   2.234       .  S
N145        C149   1.361   1_545  A
N146        N147   1.305       .  A
N146       Mn158   2.107       .  S
N147        C148   1.338       .  A
C148        C621   1.483       .  S
C149        C540   1.500       .  S
N150        N156   1.333       .  A
N150        N151   1.302       .  A
N150       Mn180   2.183       .  S
N151        C159   1.328       .  A
N152        N153   1.331   1_545  A
N152        N154   1.296       .  A
N152       Mn158   2.199       .  S
N153        C160   1.360   1_455  A
N154        N155   1.325   1_455  A
N154       Mn180   2.190       .  S
N155        C160   1.355   1_545  A
N156        N157   1.309       .  A
N156       Mn158   2.207       .  S
N157        C159   1.346       .  A
Mn158      Cl182   2.587       .  S
C159        C888   1.466   1_445  S
C160        C912   1.516       .  S
N161        N162   1.335       .  A
N161        N167   1.310       .  A
N161       Mn169   2.203       .  S
N162        C170   1.347       .  A
N163        N165   1.321       .  A
N163        N164   1.328       .  A
N163       Mn181   2.219       .  S
N164        C171   1.351       .  A
N165        N166   1.327       .  A
N165       Mn169   2.221       .  S
N166        C171   1.349       .  A
N167        N168   1.337       .  A
N167       Mn181   2.228       .  S
N168        C170   1.346       .  A
Mn169      Cl182   2.692       .  S
C170        C456   1.495       .  S
C171        C561   1.495       .  S
N172        N173   1.300       .  A
N172        N178   1.314       .  A
N172       Mn180   2.080       .  S
N173        C183   1.332       .  A
N174        N175   1.334       .  A
N174        N176   1.309       .  A
N174       Mn181   2.249       .  S
N175        C184   1.368       .  A
N176        N177   1.311   1_455  A
N176       Mn180   2.149       .  S
N177        C184   1.339   1_655  A
N178        N179   1.339       .  A
N178       Mn181   2.287       .  S
N179        C183   1.370       .  A
Mn180      Cl182   2.550       .  S
Mn181      Cl182   2.683       .  S
C183        C705   1.507       .  S
C184        C492   1.503   1_455  S
N185        N186   1.324       .  A
N185        N191   1.323       .  A
N185       Mn214   2.219       .  S
N186        C193   1.359       .  A
N187        N189   1.315       .  A
N187        N188   1.328       .  A
N187       Mn203   2.201       .  S
N188        C194   1.356       .  A
N189        N190   1.328       .  A
N189       Mn214   2.252       .  S
N190        C194   1.356       .  A
N191        N192   1.299   1_455  A
N191       Mn203   2.138       .  S
N192        C193   1.322   1_655  A
C193        C813   1.449       .  S
C194        C480   1.504   1_455  S
N195        N201   1.330       .  A
N195        N196   1.312   1_554  A
N195       Mn225   2.160       .  S
N196        C204   1.333       .  A
N197        N198   1.332   1_455  A
N197        N199   1.313       .  A
N197       Mn203   2.279       .  S
N198        C205   1.362   1_554  A
N199        N200   1.333   1_554  A
N199       Mn225   2.242       .  S
N200        C205   1.361   1_455  A
N201        N202   1.310       .  A
N201       Mn203   2.187       .  S
N202        C204   1.339   1_554  A
Mn203      Cl227   2.535       .  S
C204        C789   1.466   1_455  S
C205        C936   1.530       .  S
N206        N207   1.323       .  A
N206        N212   1.330       .  A
N206       Mn214   2.210       .  S
N207        C215   1.345       .  A
N208        N210   1.307       .  A
N208        N209   1.315       .  A
N208       Mn226   2.146       .  S
N209        C216   1.342       .  A
N210        N211   1.337       .  A
N210       Mn214   2.271       .  S
N211        C216   1.371       .  A
N212        N213   1.317       .  A
N212       Mn226   2.168       .  S
N213        C215   1.335       .  A
Mn214      Cl227   2.512       .  S
C215        C441   1.484       .  S
C216        C516   1.513       .  S
N217        N218   1.308       .  A
N217        N223   1.321       .  A
N217       Mn225   2.166       .  S
N218        C228   1.340       .  A
N219        N220   1.323       .  A
N219        N221   1.307       .  A
N219       Mn226   2.195       .  S
N220        C229   1.350   1_554  A
N221        N222   1.325   1_554  A
N221       Mn225   2.208       .  S
N222        C229   1.360       .  A
N223        N224   1.324       .  A
N223       Mn226   2.162       .  S
N224        C228   1.345       .  A
Mn225      Cl227   2.517       .  S
Mn226      Cl227   2.549       .  S
C228        C609   1.472       .  S
C229        C573   1.502       .  S
N230        N231   1.325   1_554  A
N230        N236   1.313       .  A
N230       Mn259   2.227       .  S
N231        C238   1.356   1_546  A
N232        N234   1.328       .  A
N232        N233   1.314       .  A
N232       Mn248   2.196       .  S
N233        C239   1.344   1_554  A
N234        N235   1.310   1_554  A
N234       Mn259   2.144       .  S
N235        C239   1.329       .  A
N236        N237   1.339   1_545  A
N236       Mn248   2.288       .  S
N237        C238   1.370       .  A
C238        C900   1.537   1_554  S
C239        C696   1.465   1_545  S
N240        N246   1.321       .  A
N240        N241   1.333       .  A
N240       Mn270   2.290       .  S
N241        C249   1.361       .  A
N242        N243   1.294   1_545  A
N242        N244   1.321       .  A
N242       Mn248   2.143       .  S
N243        C250   1.321   1_565  A
N244        N245   1.326       .  A
N244       Mn270   2.214       .  S
N245        C250   1.359       .  A
N246        N247   1.328       .  A
N246       Mn248   2.203       .  S
N247        C249   1.354       .  A
Mn248      Cl272   2.555       .  S
C249        C525   1.515   1_545  S
C250        C801   1.450   1_545  S
N251        N252   1.319   1_554  A
N251        N257   1.306       .  A
N251       Mn259   2.174       .  S
N252        C260   1.353   1_556  A
N253        N255   1.317       .  A
N253        N254   1.335       .  A
N253       Mn271   2.211       .  S
N254        C261   1.358       .  A
N255        N256   1.305       .  A
N255       Mn259   2.152       .  S
N256        C261   1.339       .  A
N257        N258   1.332       .  A
N257       Mn271   2.239       .  S
N258        C260   1.363       .  A
Mn259      Cl272   2.504       .  S
C260        C588   1.511   1_554  S
C261        C720   1.491       .  S
N262        N263   1.338       .  A
N262        N268   1.310       .  A
N262       Mn270   2.281       .  S
N263        C273   1.372       .  A
N264        N265   1.315       .  A
N264        N266   1.329       .  A
N264       Mn271   2.177       .  S
N265        C274   1.338       .  A
N266        N267   1.318       .  A
N266       Mn270   2.207       .  S
N267        C274   1.346       .  A
N268        N269   1.314       .  A
N268       Mn271   2.144       .  S
N269        C273   1.342       .  A
Mn270      Cl272   2.514       .  S
Mn271      Cl272   2.548       .  S
C273        C465   1.513       .  S
C274        C429   1.462       .  S
C275        C420   1.611       .  S
C275        C669   1.615       .  S
C275        C765   1.610       .  S
C275        C828   1.629       .  S
C276        C405   1.605       .  S
C276        C636   1.608       .  S
C276        C780   1.601       .  S
C276        C861   1.593       .  S
N277        N278   1.308       .  A
N277        N283   1.323       .  A
N277       Mn306   2.167       .  S
N278        C285   1.335       .  A
N279        N281   1.304       .  A
N279        N280   1.329       .  A
N279       Mn295   2.217       .  S
N280        C286   1.361       .  A
N281        N282   1.314       .  A
N281       Mn306   2.158       .  S
N282        C286   1.344       .  A
N283        N284   1.310       .  A
N283       Mn295   2.175       .  S
N284        C285   1.342       .  A
C285        C453   1.474       .  S
C286        C372   1.487       .  S
N287        N293   1.320       .  A
N287        N288   1.319       .  A
N287       Mn317   2.204       .  S
N288        C296   1.352       .  A
N289        N290   1.313       .  A
N289        N291   1.314       .  A
N289       Mn295   2.151       .  S
N290        C297   1.343       .  A
N291        N292   1.336       .  A
N291       Mn317   2.279       .  S
N292        C297   1.369       .  A
N293        N294   1.311       .  A
N293       Mn295   2.136       .  S
N294        C296   1.332       .  A
Mn295      Cl319   2.509       .  S
C296        C444   1.451       .  S
C297        C408   1.506       .  S
N298        N299   1.320       .  A
N298        N304   1.316       .  A
N298       Mn306   2.169       .  S
N299        C307   1.343       .  A
N300        N302   1.308       .  A
N300        N301   1.332       .  A
N300       Mn318   2.251       .  S
N301        C308   1.364       .  A
N302        N303   1.316       .  A
N302       Mn306   2.141       .  S
N303        C308   1.345       .  A
N304        N305   1.321       .  A
N304       Mn318   2.204       .  S
N305        C307   1.357       .  A
Mn306      Cl319   2.525       .  S
C307        C432   1.488       .  S
C308        C381   1.493       .  S
N309        N310   1.320       .  A
N309        N315   1.333       .  A
N309       Mn317   2.207       .  S
N310        C320   1.348       .  A
N311        N312   1.325       .  A
N311        N313   1.318       .  A
N311       Mn318   2.218       .  S
N312        C321   1.353       .  A
N313        N314   1.331       .  A
N313       Mn317   2.231       .  S
N314        C321   1.359       .  A
N315        N316   1.310       .  A
N315       Mn318   2.167       .  S
N316        C320   1.334       .  A
Mn317      Cl319   2.539       .  S
Mn318      Cl319   2.496       .  S
C320        C396   1.459       .  S
C321        C417   1.521       .  S
N322        N323   1.326       .  A
N322        N328   1.325       .  A
N322       Mn351   2.200       .  S
N323        C330   1.355       .  A
N324        N326   1.305       .  A
N324        N325   1.316       .  A
N324       Mn340   2.133       .  S
N325        C331   1.344       .  A
N326        N327   1.331       .  A
N326       Mn351   2.239       .  S
N327        C331   1.363       .  A
N328        N329   1.307       .  A
N328       Mn340   2.157       .  S
N329        C330   1.338       .  A
C330        C660   1.478       .  S
C331        C549   1.493       .  S
N332        N338   1.326       .  A
N332        N333   1.304       .  A
N332       Mn362   2.162       .  S
N333        C341   1.331       .  A
N334        N335   1.326       .  A
N334        N336   1.300       .  A
N334       Mn340   2.186       .  S
N335        C342   1.357       .  A
N336        N337   1.322       .  A
N336       Mn362   2.185       .  S
N337        C342   1.351       .  A
N338        N339   1.306       .  A
N338       Mn340   2.184       .  S
N339        C341   1.340       .  A
Mn340      Cl364   2.504       .  S
C341        C852   1.471       .  S
C342        C924   1.499       .  S
N343        N344   1.321       .  A
N343        N349   1.337       .  A
N343       Mn351   2.194       .  S
N344        C352   1.341       .  A
N345        N347   1.308       .  A
N345        N346   1.322       .  A
N345       Mn363   2.162       .  S
N346        C353   1.349       .  A
N347        N348   1.320       .  A
N347       Mn351   2.190       .  S
N348        C353   1.352       .  A
N349        N350   1.319       .  A
N349       Mn363   2.212       .  S
N350        C352   1.340       .  A
Mn351      Cl364   2.520       .  S
C352        C393   1.479       .  S
C353        C597   1.481       .  S
N354        N355   1.308       .  A
N354        N360   1.321       .  A
N354       Mn362   2.149       .  S
N355        C365   1.335       .  A
N356        N357   1.327       .  A
N356        N358   1.302       .  A
N356       Mn363   2.225       .  S
N357        C366   1.359       .  A
N358        N359   1.319       .  A
N358       Mn362   2.136       .  S
N359        C366   1.347       .  A
N360        N361   1.333       .  A
N360       Mn363   2.244       .  S
N361        C365   1.367       .  A
Mn362      Cl364   2.510       .  S
Mn363      Cl364   2.516       .  S
C365        C756   1.498       .  S
C366        C504   1.481       .  S
C367        C384   1.597       .  S
C367        C684   1.601       .  S
C367        C729   1.596       .  S
C367        C876   1.591       .  S
C368        C369   1.599       .  S
C368        C645   1.603       .  S
C368        C744   1.603       .  S
C368        C840   1.610       .  S
C369        C370   1.414       .  A
C369        C374   1.434       .  A
C370        C371   1.399       .  A
C370        H379   1.069       .  S
C371        C372   1.409       .  A
C371        S375   1.812       .  S
C372        C373   1.400       .  A
C373        C374   1.409       .  A
C373        H380   1.080       .  S
C374        S376   1.805       .  S
S375        H378   1.406       .  S
S376        H377   1.405       .  S
C381        C382   1.399       .  A
C381        C386   1.408       .  A
C382        C383   1.419       .  A
C382        H391   1.083       .  S
C383        C384   1.442       .  A
C383        S387   1.810       .  S
C384        C385   1.418       .  A
C385        C386   1.397       .  A
C385        H392   1.080       .  S
C386        S388   1.799       .  S
S387        H390   1.407       .  S
S388        H389   1.407       .  S
C393        C394   1.397       .  A
C393        C398   1.405       .  A
C394        C395   1.398       .  A
C394        H403   1.082       .  S
C395        C396   1.416       .  A
C395        S399   1.805       .  S
C396        C397   1.400       .  A
C397        C398   1.390       .  A
C397        H404   1.084       .  S
C398        S400   1.789       .  S
S399        H402   1.405       .  S
S400        H401   1.402       .  S
C405        C406   1.431       .  A
C405        C410   1.443       .  A
C406        C407   1.414       .  A
C406        H415   1.073       .  S
C407        C408   1.405       .  A
C407        S411   1.798       .  S
C408        C409   1.403       .  A
C409        C410   1.402       .  A
C409        H416   1.084       .  S
C410        S412   1.809       .  S
S411        H414   1.407       .  S
S412        H413   1.397       .  S
C417        C418   1.407       .  A
C417        C422   1.413       .  A
C418        C419   1.422       .  A
C418        H427   1.084       .  S
C419        C420   1.446       .  A
C419        S423   1.810       .  S
C420        C421   1.428       .  A
C421        C422   1.407       .  A
C421        H428   1.073       .  S
C422        S424   1.802       .  S
S423        H426   1.389       .  S
S424        H425   1.406       .  S
C429        C430   1.415       .  A
C429        C434   1.420       .  A
C430        C431   1.403       .  A
C430        H439   1.083       .  S
C431        C432   1.394       .  A
C431        S435   1.788       .  S
C432        C433   1.397       .  A
C433        C434   1.401       .  A
C433        H440   1.073       .  S
C434        S436   1.798       .  S
S435        H438   1.407       .  S
S436        H437   1.407       .  S
C441        C442   1.396       .  A
C441        C446   1.400       .  A
C442        C443   1.398       .  A
C442        H451   1.077       .  S
C443        C444   1.414       .  A
C443        S447   1.798       .  S
C444        C445   1.409       .  A
C445        C446   1.395       .  A
C445        H452   1.083       .  S
C446        S448   1.794       .  S
S447        H450   1.408       .  S
S448        H449   1.408       .  S
C453        C454   1.422       .  A
C453        C458   1.440       .  A
C454        C455   1.396       .  A
C454        H463   1.083       .  S
C455        C456   1.399       .  A
C455        S459   1.788       .  S
C456        C457   1.397       .  A
C457        C458   1.412       .  A
C457        H464   1.082       .  S
C458        S460   1.802       .  S
S459        H462   1.408       .  S
S460        H461   1.407       .  S
C465        C466   1.400       .  A
C465        C470   1.421       .  A
C466        C467   1.417       .  A
C466        H475   1.084       .  S
C467        C468   1.450       .  A
C467        S471   1.811       .  S
C468        C469   1.416       .  A
C469        C470   1.403       .  A
C469        H476   1.077       .  S
C470        S472   1.804       .  S
S471        H474   1.391       .  S
S472        H473   1.397       .  S
C477        C478   1.426       .  A
C477        C482   1.447       .  A
C478        C479   1.411       .  A
C478        H487   1.077       .  S
C479        C480   1.411       .  A
C479        S483   1.805       .  S
C480        C481   1.398       .  A
C481        C482   1.415       .  A
C481        H488   1.084   1_655  S
C482        S484   1.809       .  S
S483        H486   1.403       .  S
S484        H485   1.392       .  S
C489        C490   1.412       .  A
C489        C494   1.440       .  A
C490        C491   1.395       .  A
C490        H499   1.077       .  S
C491        C492   1.424       .  A
C491        S495   1.809       .  S
C492        C493   1.402       .  A
C493        C494   1.416       .  A
C493        H500   1.082   1_655  S
C494        S496   1.811       .  S
S495        H498   1.402       .  S
S496        H497   1.407   1_655  S
C501        C502   1.428       .  A
C501        C506   1.444       .  A
C502        C503   1.398       .  A
C502        H511   1.071       .  S
C503        C504   1.400       .  A
C503        S507   1.806       .  S
C504        C505   1.397       .  A
C505        C506   1.410       .  A
C505        H512   1.082       .  S
C506        S508   1.811       .  S
S507        H510   1.404       .  S
S508        H509   1.391       .  S
C513        C514   1.413       .  A
C513        C518   1.446       .  A
C514        C515   1.405       .  A
C514        H523   1.076       .  S
C515        C516   1.423       .  A
C515        S519   1.801       .  S
C516        C517   1.401       .  A
C517        C518   1.418       .  A
C517        H524   1.084       .  S
C518        S520   1.808       .  S
S519        H522   1.408       .  S
S520        H521   1.395       .  S
C525        C526   1.403       .  A
C525        C530   1.408       .  A
C526        C527   1.421       .  A
C526        H535   1.084       .  S
C527        C528   1.449       .  A
C527        S531   1.810       .  S
C528        C529   1.420       .  A
C529        C530   1.411       .  A
C529        H536   1.075       .  S
C530        S532   1.793   1_565  S
S531        H534   1.397       .  S
S532        H533   1.405       .  S
C537        C538   1.426       .  A
C537        C542   1.435       .  A
C538        C539   1.411       .  A
C538        H547   1.077       .  S
C539        C540   1.408       .  A
C539        S543   1.802   1_565  S
C540        C541   1.401       .  A
C541        C542   1.406       .  A
C541        H548   1.083       .  S
C542        S544   1.807       .  S
S543        H546   1.406       .  S
S544        H545   1.407       .  S
C549        C550   1.396       .  A
C549        C554   1.410       .  A
C550        C551   1.416       .  A
C550        H559   1.083       .  S
C551        C552   1.450       .  A
C551        S555   1.807       .  S
C552        C553   1.421       .  A
C553        C554   1.397       .  A
C553        H560   1.081       .  S
C554        S556   1.805       .  S
S555        H558   1.407       .  S
S556        H557   1.407       .  S
C561        C562   1.398       .  A
C561        C566   1.409       .  A
C562        C563   1.412       .  A
C562        H571   1.084       .  S
C563        C564   1.444       .  A
C563        S567   1.808       .  S
C564        C565   1.425       .  A
C565        C566   1.407       .  A
C565        H572   1.074       .  S
C566        S568   1.805       .  S
S567        H570   1.396       .  S
S568        H569   1.405       .  S
C573        C574   1.396       .  A
C573        C578   1.420       .  A
C574        C575   1.400       .  A
C574        H583   1.084       .  S
C575        C576   1.443       .  A
C575        S579   1.805       .  S
C576        C577   1.418       .  A
C577        C578   1.414       .  A
C577        H584   1.075       .  S
C578        S580   1.808   1_556  S
S579        H582   1.400       .  S
S580        H581   1.407       .  S
C585        C586   1.427       .  A
C585        C590   1.445       .  A
C586        C587   1.415       .  A
C586        H595   1.082       .  S
C587        C588   1.413       .  A
C587        S591   1.802   1_556  S
C588        C589   1.400       .  A
C589        C590   1.407       .  A
C589        H596   1.082       .  S
C590        S592   1.811       .  S
S591        H594   1.407   1_554  S
S592        H593   1.408       .  S
C597        C598   1.387       .  A
C597        C602   1.410       .  A
C598        C599   1.398       .  A
C598        H607   1.084       .  S
C599        C600   1.449       .  A
C599        S603   1.809       .  S
C600        C601   1.420       .  A
C601        C602   1.404       .  A
C601        H608   1.083       .  S
C602        S604   1.801       .  S
S603        H606   1.408       .  S
S604        H605   1.407       .  S
C609        C610   1.399       .  A
C609        C614   1.407       .  A
C610        C611   1.387   1_554  A
C610        H619   1.077   1_554  S
C611        C612   1.410       .  A
C611        S615   1.789       .  S
C612        C613   1.411   1_556  A
C613        C614   1.397       .  A
C613        H620   1.084       .  S
C614        S616   1.801       .  S
S615        H618   1.396       .  S
S616        H617   1.405       .  S
C621        C622   1.411   1_545  A
C621        C626   1.404       .  A
C622        C623   1.407       .  A
C622        H631   1.084       .  S
C623        C624   1.420       .  A
C623        S627   1.811       .  S
C624        C625   1.414   1_565  A
C625        C626   1.396       .  A
C625        H632   1.081       .  S
C626        S628   1.798       .  S
S627        H630   1.401       .  S
S628        H629   1.402       .  S
C633        C634   1.406       .  A
C633        C638   1.416       .  A
C634        C635   1.417       .  A
C634        H643   1.082       .  S
C635        C636   1.440       .  A
C635        S639   1.813       .  S
C636        C637   1.425       .  A
C637        C638   1.416       .  A
C637        H644   1.078       .  S
C638        S640   1.801       .  S
S639        H642   1.407       .  S
S640        H641   1.408       .  S
C645        C646   1.428       .  A
C645        C650   1.441       .  A
C646        C647   1.416       .  A
C646        H655   1.081       .  S
C647        C648   1.410       .  A
C647        S651   1.803       .  S
C648        C649   1.400       .  A
C649        C650   1.419       .  A
C649        H656   1.081   1_545  S
C650        S652   1.806       .  S
S651        H654   1.406       .  S
S652        H653   1.407   1_545  S
C657        C658   1.418       .  A
C657        C662   1.419       .  A
C658        C659   1.392       .  A
C658        H667   1.082       .  S
C659        C660   1.399       .  A
C659        S663   1.800       .  S
C660        C661   1.403       .  A
C661        C662   1.402       .  A
C661        H668   1.077       .  S
C662        S664   1.806       .  S
S663        H666   1.407       .  S
S664        H665   1.400       .  S
C669        C670   1.421       .  A
C669        C674   1.454       .  A
C670        C671   1.408       .  A
C670        H679   1.076       .  S
C671        C672   1.422       .  A
C671        S675   1.802       .  S
C672        C673   1.403       .  A
C673        C674   1.422       .  A
C673        H680   1.084       .  S
C674        S676   1.814       .  S
S675        H678   1.397       .  S
S676        H677   1.388       .  S
C681        C682   1.398   1_545  A
C681        C686   1.419       .  A
C682        C683   1.418   1_565  A
C682        H691   1.084       .  S
C683        C684   1.451       .  A
C683        S687   1.801   1_545  S
C684        C685   1.416       .  A
C685        C686   1.402       .  A
C685        H692   1.083       .  S
C686        S688   1.805       .  S
S687        H690   1.403   1_565  S
S688        H689   1.408       .  S
C693        C694   1.410       .  A
C693        C698   1.389       .  A
C694        C695   1.410   1_565  A
C694        H703   1.083       .  S
C695        C696   1.426   1_545  A
C695        S699   1.799       .  S
C696        C697   1.424       .  A
C697        C698   1.401       .  A
C697        H704   1.081       .  S
C698        S700   1.784       .  S
S699        H702   1.407       .  S
S700        H701   1.398       .  S
C705        C706   1.413   1_455  A
C705        C710   1.392       .  A
C706        C707   1.413       .  A
C706        H715   1.084       .  S
C707        C708   1.427       .  A
C707        S711   1.807       .  S
C708        C709   1.411       .  A
C709        C710   1.396   1_655  A
C709        H716   1.082   1_655  S
C710        S712   1.786       .  S
S711        H714   1.402       .  S
S712        H713   1.402       .  S
C717        C718   1.414   1_556  A
C717        C722   1.409       .  A
C718        C719   1.400       .  A
C718        H727   1.083       .  S
C719        C720   1.403       .  A
C719        S723   1.792       .  S
C720        C721   1.410       .  A
C721        C722   1.407   1_554  A
C721        H728   1.078       .  S
C722        S724   1.793       .  S
S723        H726   1.407       .  S
S724        H725   1.396       .  S
C729        C730   1.425       .  A
C729        C734   1.437       .  A
C730        C731   1.414       .  A
C730        H739   1.077       .  S
C731        C732   1.413       .  A
C731        S735   1.801       .  S
C732        C733   1.407       .  A
C733        C734   1.418       .  A
C733        H740   1.082       .  S
C734        S736   1.811       .  S
S735        H738   1.408       .  S
S736        H737   1.407       .  S
C741        C742   1.406       .  A
C741        C746   1.417       .  A
C742        C743   1.417       .  A
C742        H751   1.083   1_554  S
C743        C744   1.434       .  A
C743        S747   1.789   1_554  S
C744        C745   1.428       .  A
C745        C746   1.420       .  A
C745        H752   1.082       .  S
C746        S748   1.807   1_455  S
S747        H750   1.406   1_556  S
S748        H749   1.407   1_655  S
C753        C754   1.410       .  A
C753        C758   1.424       .  A
C754        C755   1.395       .  A
C754        H763   1.077       .  S
C755        C756   1.397       .  A
C755        S759   1.793       .  S
C756        C757   1.404       .  A
C757        C758   1.407       .  A
C757        H764   1.084       .  S
C758        S760   1.792       .  S
S759        H762   1.408       .  S
S760        H761   1.401       .  S
C765        C766   1.428       .  A
C765        C770   1.441       .  A
C766        C767   1.421       .  A
C766        H775   1.073       .  S
C767        C768   1.412       .  A
C767        S771   1.804   1_554  S
C768        C769   1.407       .  A
C769        C770   1.410       .  A
C769        H776   1.084       .  S
C770        S772   1.809       .  S
S771        H774   1.407       .  S
S772        H773   1.398       .  S
C777        C778   1.409       .  A
C777        C782   1.406   1_455  A
C778        C779   1.412       .  A
C778        H787   1.084       .  S
C779        C780   1.439       .  A
C779        S783   1.814       .  S
C780        C781   1.435       .  A
C781        C782   1.412   1_455  A
C781        H788   1.076       .  S
C782        S784   1.797       .  S
S783        H786   1.389       .  S
S784        H785   1.406       .  S
C789        C790   1.425       .  A
C789        C794   1.417       .  A
C790        C791   1.405       .  A
C790        H799   1.082   1_556  S
C791        C792   1.397       .  A
C791        S795   1.796       .  S
C792        C793   1.410       .  A
C793        C794   1.405       .  A
C793        H800   1.075       .  S
C794        S796   1.804   1_655  S
S795        H798   1.408   1_556  S
S796        H797   1.407   1_455  S
C801        C802   1.413   1_565  A
C801        C806   1.435       .  A
C802        C803   1.408   1_545  A
C802        H811   1.080       .  S
C803        C804   1.395       .  A
C803        S807   1.781   1_565  S
C804        C805   1.403       .  A
C805        C806   1.397       .  A
C805        H812   1.079       .  S
C806        S808   1.812       .  S
S807        H810   1.409   1_545  S
S808        H809   1.407       .  S
C813        C814   1.409       .  A
C813        C818   1.434   1_455  A
C814        C815   1.401       .  A
C814        H823   1.076       .  S
C815        C816   1.397   1_455  A
C815        S819   1.785       .  S
C816        C817   1.390       .  A
C817        C818   1.396       .  A
C817        H824   1.061       .  S
C818        S820   1.809       .  S
S819        H822   1.400       .  S
S820        H821   1.408       .  S
C825        C826   1.406       .  A
C825        C830   1.420       .  A
C826        C827   1.428       .  A
C826        H835   1.084       .  S
C827        C828   1.450       .  A
C827        S831   1.811       .  S
C828        C829   1.429       .  A
C829        C830   1.427       .  A
C829        H836   1.080       .  S
C830        S832   1.804       .  S
S831        H834   1.393       .  S
S832        H833   1.405       .  S
C837        C838   1.405       .  A
C837        C842   1.413       .  A
C838        C839   1.410       .  A
C838        H847   1.082   1_455  S
C839        C840   1.436       .  A
C839        S843   1.806       .  S
C840        C841   1.421       .  A
C841        C842   1.407       .  A
C841        H848   1.079       .  S
C842        S844   1.802   1_545  S
S843        H846   1.390       .  S
S844        H845   1.407   1_565  S
C849        C850   1.403       .  A
C849        C854   1.398       .  A
C850        C851   1.409       .  A
C850        H859   1.080       .  S
C851        C852   1.437       .  A
C851        S855   1.807       .  S
C852        C853   1.421       .  A
C853        C854   1.393       .  A
C853        H860   1.082       .  S
C854        S856   1.788       .  S
S855        H858   1.408       .  S
S856        H857   1.408       .  S
C861        C862   1.426       .  A
C861        C866   1.442       .  A
C862        C863   1.400       .  A
C862        H871   1.074       .  S
C863        C864   1.402       .  A
C863        S867   1.805       .  S
C864        C865   1.399       .  A
C865        C866   1.411       .  A
C865        H872   1.083   1_455  S
C866        S868   1.809       .  S
S867        H870   1.405       .  S
S868        H869   1.396       .  S
C873        C874   1.397       .  A
C873        C878   1.401       .  A
C874        C875   1.410       .  A
C874        H883   1.078       .  S
C875        C876   1.439       .  A
C875        S879   1.805       .  S
C876        C877   1.430       .  A
C877        C878   1.402       .  A
C877        H884   1.074       .  S
C878        S880   1.807       .  S
S879        H882   1.398       .  S
S880        H881   1.405       .  S
C885        C886   1.401       .  A
C885        C890   1.402       .  A
C886        C887   1.409   1_565  A
C886        H895   1.079       .  S
C887        C888   1.437   1_545  A
C887        S891   1.807       .  S
C888        C889   1.420       .  A
C889        C890   1.397       .  A
C889        H896   1.082   1_655  S
C890        S892   1.791       .  S
S891        H894   1.407       .  S
S892        H893   1.407       .  S
C897        C898   1.425       .  A
C897        C902   1.438       .  A
C898        C899   1.427       .  A
C898        H907   1.076       .  S
C899        C900   1.418       .  A
C899        S903   1.794   1_556  S
C900        C901   1.405       .  A
C901        C902   1.412       .  A
C901        H908   1.074   1_565  S
C902        S904   1.811       .  S
S903        H906   1.407       .  S
S904        H905   1.394       .  S
C909        C910   1.423       .  A
C909        C914   1.441       .  A
C910        C911   1.416       .  A
C910        H919   1.077       .  S
C911        C912   1.413       .  A
C911        S915   1.800   1_655  S
C912        C913   1.401       .  A
C913        C914   1.411       .  A
C913        H920   1.082       .  S
C914        S916   1.806       .  S
S915        H918   1.406       .  S
S916        H917   1.407       .  S
C921        C922   1.425       .  A
C921        C926   1.440       .  A
C922        C923   1.402       .  A
C922        H931   1.079       .  S
C923        C924   1.408       .  A
C923        S927   1.811       .  S
C924        C925   1.401       .  A
C925        C926   1.413       .  A
C925        H932   1.078       .  S
C926        S928   1.810       .  S
S927        H930   1.407       .  S
S928        H929   1.406       .  S
C933        C934   1.412       .  A
C933        C938   1.449       .  A
C934        C935   1.410       .  A
C934        H943   1.075       .  S
C935        C936   1.420       .  A
C935        S939   1.789   1_556  S
C936        C937   1.404       .  A
C937        C938   1.422       .  A
C937        H944   1.079       .  S
C938        S940   1.810       .  S
S939        H942   1.397   1_655  S
S940        H941   1.399       .  S
