geometry optimzed in LAMMPS
_audit_creation_date              2020-11-30 
_audit_creation_method            'lammps2cif' 
_symmetry_space_group_name_H-M    'P1' 
_symmetry_Int_Tables_number       1 
_symmetry_cell_setting            triclinic 
loop_ 
_symmetry_equiv_pos_as_xyz 
  x,y,z 
_cell_length_a                    47.47130106 
_cell_length_b                    46.99841408727648 
_cell_length_c                    34.8880127864054 
_cell_angle_alpha                 90.02232533876722 
_cell_angle_beta                  89.7738334384499 
_cell_angle_gamma                 90.37211659008348 
loop_ 
_atom_site_label 
_atom_site_type_symbol 
_atom_site_fract_x 
_atom_site_fract_y 
_atom_site_fract_z 
_atom_site_charge 
C1          C  0.41671240  0.17474200  0.45748529     0.30700
C2          C  0.41369892  0.17518614  0.03665707     0.30700
C3          C  0.42714472  0.14794812  0.47818292    -0.05500
C4          C  0.43329624  0.19877934  0.47769832    -0.06300
C5          C  0.38731237  0.17968062  0.47509221    -0.06100
C6          C  0.42628691  0.14826542  0.01816907    -0.05500
C7          C  0.43274281  0.19815976  0.01783167    -0.06300
C8          C  0.38551324  0.17853400  0.01526813    -0.06100
C9          C  0.44326839  0.12620342  0.03035050    -0.31500
N10         N  0.45340825  0.11235268  0.99908887     0.15000
C11         C  0.44383889  0.12548548  0.46724821    -0.31500
H12         H  0.44992285  0.12000993  0.43825509     0.16900
C13         C  0.45207331  0.21813140  0.03023569    -0.30500
N14         N  0.46224050  0.23233690  0.49934991     0.13700
C15         C  0.45065290  0.22114926  0.46720091    -0.30500
C16         C  0.36121992  0.19258741  0.02564142    -0.30800
N17         N  0.34930138  0.20380731  0.99396532     0.14200
H18         H  0.35470802  0.19751407  0.05464766     0.16800
C19         C  0.36547115  0.19697194  0.46329825    -0.30800
H20         H  0.36287922  0.20571920  0.43484498     0.16800
H21         H  0.45572104  0.22792777  0.43834289     0.16800
H22         H  0.44924873  0.12169173  0.05962399     0.16900
H23         H  0.45870173  0.22182351  0.05947833     0.16800
C24         C  0.41580132  0.17583396  0.20738328     0.30700
C25         C  0.41735579  0.17470838  0.28659542     0.30700
C26         C  0.42773070  0.14856375  0.22573142    -0.05500
C27         C  0.43485410  0.19844259  0.22694288    -0.06300
C28         C  0.38739557  0.17971156  0.22814825    -0.06100
C29         C  0.42810315  0.14794229  0.26570026    -0.05500
C30         C  0.43445839  0.19885095  0.26709438    -0.06300
C31         C  0.38813810  0.17987289  0.26834353    -0.06100
C32         C  0.44472128  0.12526430  0.27634539    -0.31500
N33         N  0.45446826  0.11218162  0.24434097     0.15000
C34         C  0.44468456  0.12642868  0.21330789    -0.31500
H35         H  0.45088464  0.12214517  0.18398921     0.16900
C36         C  0.45136427  0.22135911  0.27843828    -0.30500
N37         N  0.46384611  0.23270933  0.24693475     0.13700
C38         C  0.45456253  0.21847560  0.21552863    -0.30500
C39         C  0.36527167  0.19608752  0.28006259    -0.30800
N40         N  0.35031387  0.20422419  0.24891039     0.14200
H41         H  0.36147465  0.20374139  0.30887689     0.16800
C42         C  0.36374413  0.19460581  0.21731737    -0.30800
H43         H  0.35811079  0.20033601  0.18832088     0.16800
H44         H  0.46180276  0.22238848  0.18662626     0.16800
H45         H  0.45061971  0.11962639  0.30528298     0.16900
H46         H  0.45542883  0.22820804  0.30761885     0.16800
C47         C  0.36979325  0.42619617  0.45982632     0.30700
C48         C  0.37088629  0.42802597  0.03911333     0.30700
C49         C  0.39814215  0.43423440  0.47808885    -0.05500
C50         C  0.35060711  0.44863068  0.47924089    -0.06300
C51         C  0.36169205  0.39855891  0.48084054    -0.06100
C52         C  0.39885336  0.43448186  0.01815410    -0.05500
C53         C  0.35022672  0.44857673  0.01946069    -0.06300
C54         C  0.36100516  0.39974045  0.02088134    -0.06100
C55         C  0.42245393  0.44984605  0.02852589    -0.31500
N56         N  0.43578537  0.45905663  0.49644335     0.15000
C57         C  0.42083974  0.45036153  0.46558128    -0.31500
H58         H  0.42488966  0.45714476  0.43641107     0.16900
C59         C  0.33005312  0.46780489  0.03085356    -0.30500
N60         N  0.32025419  0.48119070  0.49929776     0.13700
C61         C  0.33289947  0.47016616  0.46777700    -0.30500
C62         C  0.34297380  0.37803971  0.03253976    -0.30800
N63         N  0.33532741  0.36249675  0.50141325     0.14200
H64         H  0.33515535  0.37452402  0.06134617     0.16800
C65         C  0.34656812  0.37486170  0.46982247    -0.30800
H66         H  0.34165637  0.36871097  0.44068604     0.16800
H67         H  0.32888419  0.47694970  0.43868169     0.16800
H68         H  0.42840530  0.45573655  0.05738107     0.16900
H69         H  0.32318077  0.47209734  0.05989179     0.16800
C70         C  0.37376650  0.42785106  0.20989015     0.30700
C71         C  0.37263944  0.42577772  0.28907167     0.30700
C72         C  0.40249124  0.43039622  0.23000710    -0.05500
C73         C  0.35601191  0.45079258  0.23034438    -0.06300
C74         C  0.36079558  0.40079542  0.22790218    -0.06100
C75         C  0.40202460  0.43010271  0.27037559    -0.05500
C76         C  0.35665338  0.45065281  0.27043724    -0.06300
C77         C  0.36068999  0.39969265  0.26780320    -0.06100
C78         C  0.42509056  0.44636437  0.28174084    -0.31500
N79         N  0.43984823  0.45484564  0.25036433     0.15000
C80         C  0.42616773  0.44543118  0.21894697    -0.31500
H81         H  0.43150163  0.45163133  0.18993534     0.16900
C82         C  0.34026962  0.47300934  0.28275111    -0.30500
N83         N  0.32786676  0.48481235  0.25175258     0.13700
C84         C  0.33664887  0.47104761  0.21982063    -0.30500
C85         C  0.34502420  0.37615557  0.27839136    -0.30800
N86         N  0.33548404  0.36307797  0.24630622     0.14200
H87         H  0.33975638  0.36975125  0.30735610     0.16800
C88         C  0.34466624  0.37799723  0.21530358    -0.30800
H89         H  0.33876072  0.37350196  0.18597100     0.16800
H90         H  0.32908168  0.47527155  0.19117132     0.16800
H91         H  0.42900314  0.45403892  0.31050273     0.16900
H92         H  0.33625975  0.47924900  0.31212178     0.16800
O93         O  0.47833027  0.47520488  0.47006927    -0.77800
C94         C  0.02402066  0.03011160  0.39164056     0.83300
O95         O  0.07495173  0.47912138  0.01478496    -0.78900
O96         O  0.06592564  0.08291531  0.47932940    -0.80400
O97         O  0.46849987  0.06827045  0.02141063    -0.80200
O98         O  0.46117595  0.49723839  0.02144695    -0.78800
Zn99       Zn  0.01694945  0.49325792  0.46206773     1.55700
O100        O  0.99414735  0.09014841  0.47654104    -0.80200
Cd101      Cd  0.48939434  0.03017180  0.02869203     1.59700
Cd102      Cd  0.05783879  0.01917477  0.02551585     1.59600
O103        O  0.50162019  0.02893921  0.08384583    -0.80200
O104        O  0.02304810  0.02595843  0.49508436    -1.90700
Cd105      Cd  0.02771514  0.06268707  0.46666184     1.59900
O106        O  0.04781447  0.02013825  0.08230242    -0.80200
O107        O  0.02767919  0.05349073  0.40939208    -0.78800
C108        C  0.06742838  0.45938936  0.49180417     0.83700
C109        C  0.45943842  0.47806409  0.49581453     0.83400
O110        O  0.01973205  0.50652673  0.40858842    -0.77800
C111        C  0.47297895  0.08928461  0.99918407     0.84200
O112        O  0.04630238  0.46229897  0.46970514    -0.77900
C113        C  0.02495132  0.02458838  0.10033280     0.84300
C114        C  0.08685419  0.07539142  0.49975759     0.84600
O115        O  0.08702318  0.05181265  0.01789325    -0.80300
O116        O  0.05072098  0.46393737  0.27147403    -0.77800
C117        C  0.02458750  0.03002240  0.35023347     0.83300
O118        O  0.46265432  0.49473089  0.22460711    -0.78900
O119        O  0.99625032  0.09064910  0.26437304    -0.80400
O120        O  0.08919716  0.05129140  0.22496976    -0.79000
O121        O  0.07643097  0.48034562  0.22277999    -0.78800
Zn122      Zn  0.02015533  0.49302601  0.27997068     1.55700
O123        O  0.06898301  0.08132378  0.26605796    -0.80200
Cd124      Cd  0.05903908  0.02017859  0.21490633     1.59700
Cd125      Cd  0.48988880  0.02881533  0.21502273     1.59600
O126        O  0.04863335  0.02215423  0.15867641    -0.80200
O127        O  0.02451335  0.02588182  0.24677854    -1.90700
Cd128      Cd  0.02930958  0.06259943  0.27528111     1.59900
O129        O  0.50180125  0.02727705  0.15908775    -0.80200
O130        O  0.02738820  0.05348563  0.33243992    -0.78800
C131        C  0.46269485  0.47496982  0.24964743     0.83700
C132        C  0.07062117  0.46107091  0.24721610     0.83400
O133        O  0.02203388  0.50620967  0.33332653    -0.77800
C134        C  0.09000443  0.07365089  0.24566899     0.84200
O135        O  0.48269892  0.47251933  0.27357642    -0.77900
C136        C  0.02520659  0.02468362  0.14162939     0.84300
C137        C  0.47406944  0.08899242  0.24383829     0.84600
O138        O  0.46863079  0.06709956  0.22344723    -0.80300
C139        C  0.10482422  0.36124780  0.45431275     0.30700
C140        C  0.10763383  0.36376576  0.03371060     0.30700
C141        C  0.09887858  0.39076611  0.47287112    -0.05500
C142        C  0.08461185  0.34172926  0.47657141    -0.06300
C143        C  0.13372635  0.35415806  0.47254182    -0.06100
C144        C  0.09937109  0.39165139  0.01311380    -0.05500
C145        C  0.08538895  0.34334904  0.01647926    -0.06300
C146        C  0.13479833  0.35544802  0.01252266    -0.06100
C147        C  0.08791902  0.41742056  0.02390011    -0.31500
N148        N  0.08230229  0.43284378  0.49201907     0.15000
C149        C  0.08927404  0.41707677  0.46081910    -0.31500
H150        H  0.08612440  0.42383588  0.43152009     0.16900
C151        C  0.06356323  0.32638492  0.02986235    -0.30500
N152        N  0.05093047  0.31376822  0.49939422     0.13700
C153        C  0.06344335  0.32303243  0.46678459    -0.30500
C154        C  0.16101927  0.34632765  0.02373261    -0.30800
N155        N  0.17593086  0.33910506  0.49206895     0.14200
H156        H  0.16796637  0.34312604  0.05292712     0.16800
C157        C  0.15984427  0.34431339  0.46069530    -0.30800
H158        H  0.16635884  0.33997812  0.43154058     0.16800
H159        H  0.05726732  0.31686540  0.43810432     0.16800
H160        H  0.08268529  0.42391848  0.05281783     0.16900
H161        H  0.05739808  0.32322059  0.05945540     0.16800
C162        C  0.10845514  0.36473952  0.20486672     0.30700
C163        C  0.10601885  0.36324347  0.28435371     0.30700
C164        C  0.10122662  0.39312902  0.22519805    -0.05500
C165        C  0.08566093  0.34520523  0.22287916    -0.06300
C166        C  0.13547224  0.35585293  0.22576599    -0.06100
C167        C  0.10094411  0.39260944  0.26551418    -0.05500
C168        C  0.08510402  0.34414999  0.26277368    -0.06300
C169        C  0.13473730  0.35577619  0.26578371    -0.06100
C170        C  0.09268918  0.41924906  0.27756110    -0.31500
N171        N  0.08591723  0.43494437  0.24639726     0.15000
C172        C  0.09067812  0.41922729  0.21444265    -0.31500
H173        H  0.08516698  0.42566822  0.18565828     0.16900
C174        C  0.06329866  0.32645654  0.27353946    -0.30500
N175        N  0.05019120  0.31707569  0.24156711     0.13700
C176        C  0.06323688  0.32860682  0.21043142    -0.30500
C177        C  0.16132563  0.34766544  0.27771535    -0.30800
N178        N  0.17702395  0.34094234  0.24638465     0.14200
H179        H  0.16806707  0.34467603  0.30702189     0.16800
C180        C  0.16156361  0.34621925  0.21460957    -0.30800
H181        H  0.16837241  0.34203828  0.18550538     0.16800
H182        H  0.05708018  0.32482159  0.18102784     0.16800
H183        H  0.08992146  0.42621119  0.30689123     0.16900
H184        H  0.05731505  0.32076550  0.30252659     0.16800
C185        C  0.18282509  0.11462105  0.04021410     0.30700
C186        C  0.18178346  0.11598302  0.46072997     0.30700
C187        C  0.18795480  0.14409385  0.02123213    -0.05500
C188        C  0.20360715  0.09558309  0.01917789    -0.06300
C189        C  0.15426262  0.10656669  0.02112124    -0.06100
C190        C  0.18718579  0.14479207  0.48101725    -0.05500
C191        C  0.20316008  0.09615406  0.47954671    -0.06300
C192        C  0.15372950  0.10773520  0.48082109    -0.06100
C193        C  0.19267764  0.17251851  0.47010052    -0.31500
N194        N  0.19881405  0.18800948  0.50179333     0.15000
C195        C  0.19456912  0.17134471  0.03309844    -0.31500
H196        H  0.19821543  0.17816882  0.06229140     0.16900
C197        C  0.22316800  0.07714659  0.46692004    -0.30500
N198        N  0.23545676  0.06536104  0.49803522     0.13700
C199        C  0.22376171  0.07638990  0.03008257    -0.30500
C200        C  0.12674859  0.10058004  0.46956652    -0.30800
N201        N  0.11159926  0.09306784  0.50099891     0.14200
H202        H  0.11932204  0.09861455  0.44039395     0.16800
C203        C  0.12770333  0.09761908  0.03257161    -0.30800
H204        H  0.12086998  0.09334100  0.06163472     0.16800
H205        H  0.22940776  0.07062753  0.05907901     0.16800
H206        H  0.19490064  0.18023577  0.44102446     0.16900
H207        H  0.22829456  0.07207057  0.43745577     0.16800
C208        C  0.18448403  0.11513972  0.28944069     0.30700
C209        C  0.18679385  0.11353251  0.21004864     0.30700
C210        C  0.18840331  0.14419420  0.26884876    -0.05500
C211        C  0.20772920  0.09698131  0.27124585    -0.06300
C212        C  0.15736672  0.10473926  0.26881970    -0.06100
C213        C  0.18949589  0.14342522  0.22860788    -0.05500
C214        C  0.20893143  0.09632790  0.23154016    -0.06300
C215        C  0.15879029  0.10356666  0.22870928    -0.06100
C216        C  0.19463046  0.17099306  0.21636920    -0.31500
N217        N  0.19823400  0.18791853  0.24750791     0.15000
C218        C  0.19298475  0.17211970  0.27937308    -0.31500
H219        H  0.19494074  0.18004026  0.30836398     0.16900
C220        C  0.23105971  0.07908415  0.22138840    -0.30500
N221        N  0.24325449  0.06937231  0.25384925     0.13700
C222        C  0.22917195  0.07995445  0.28452692    -0.30500
C223        C  0.13273363  0.09449572  0.21601517    -0.30800
N224        N  0.11574642  0.08983504  0.24671191     0.14200
H225        H  0.12658887  0.09085471  0.18658150     0.16800
C226        C  0.13005048  0.09714316  0.27891340    -0.30800
H227        H  0.12161461  0.09553182  0.30769722     0.16800
H228        H  0.23381023  0.07507840  0.31415094     0.16800
H229        H  0.19838140  0.17775309  0.18715437     0.16900
H230        H  0.23741654  0.07336660  0.19258389     0.16800
O231        O  0.24431126  0.27136980  0.41034631    -0.77800
C232        C  0.21638484  0.21295492  0.50129673     0.83300
O233        O  0.22118454  0.33027676  0.01573696    -0.78900
O234        O  0.27221162  0.25476227  0.08498442    -0.80400
O235        O  0.32744448  0.24530783  0.47221954    -0.80200
O236        O  0.29021902  0.28253514  0.40957748    -0.78800
Zn237      Zn  0.23236930  0.26985535  0.46471445     1.55700
O238        O  0.30646265  0.21993494  0.01816595    -0.80200
Cd239      Cd  0.30080347  0.28018277  0.46600279     1.59700
Cd240      Cd  0.25988813  0.31139868  0.02757279     1.59600
O241        O  0.32192708  0.31763080  0.47934633    -0.80200
O242        O  0.26534160  0.27610502  0.49645338    -1.90700
Cd243      Cd  0.27005131  0.24228565  0.02974218     1.59900
O244        O  0.29333653  0.34000102  0.02022012    -0.80200
O245        O  0.23613772  0.21488962  0.02575161    -0.78800
C246        C  0.20153199  0.32301896  0.49277913     0.83700
C247        C  0.26703112  0.27749443  0.39277814     0.83400
O248        O  0.21320273  0.23163982  0.47519373    -0.77800
C249        C  0.32662476  0.22381064  0.99453396     0.84200
O250        O  0.20347280  0.30093550  0.47175282    -0.77900
C251        C  0.31606325  0.33889381  0.00059910     0.84300
C252        C  0.26622431  0.27781968  0.10187798     0.84600
O253        O  0.25969091  0.30059966  0.08448521    -0.80300
O254        O  0.21207307  0.23264037  0.22295280    -0.77800
C255        C  0.20233437  0.32442683  0.24676737     0.83300
O256        O  0.29035555  0.27885939  0.15956362    -0.78900
O257        O  0.29423415  0.34031449  0.26666967    -0.80400
O258        O  0.26829402  0.25387329  0.33485010    -0.80200
O259        O  0.23573172  0.21420256  0.27180786    -0.78800
Zn260      Zn  0.23181932  0.27138253  0.21508762     1.55700
O261        O  0.26417332  0.30131192  0.33433523    -0.80200
Cd262      Cd  0.26905924  0.24183638  0.27932309     1.59700
Cd263      Cd  0.30110332  0.27924901  0.21593758     1.59600
O264        O  0.30657222  0.21991923  0.27128453    -0.80200
O265        O  0.26542361  0.27616682  0.24641279    -1.90700
Cd266      Cd  0.26147173  0.31178971  0.27751979     1.59900
O267        O  0.32815857  0.24506267  0.22560541    -0.80200
O268        O  0.22246160  0.33125455  0.26915497    -0.78800
C269        C  0.26662321  0.27763649  0.14293633     0.83700
C270        C  0.21572488  0.21298050  0.24766232     0.83400
O271        O  0.20374865  0.30264574  0.22509713    -0.77800
C272        C  0.26657220  0.27768543  0.35171867     0.84200
O273        O  0.24330300  0.27505751  0.16062278    -0.77900
C274        C  0.32733480  0.22396663  0.24866164     0.84300
C275        C  0.31637271  0.33933090  0.24586162     0.84600
O276        O  0.32212337  0.31773089  0.22518211    -0.80300
C277        C  0.17157779  0.09151801  0.39538876    -0.01100
C278        C  0.18387753  0.11449943  0.41620652     0.08500
C279        C  0.20546956  0.12947839  0.39594340    -0.01300
C280        C  0.20597968  0.12960986  0.35523783    -0.01300
C281        C  0.18544509  0.11397954  0.33409376     0.08700
C282        C  0.17269960  0.09108929  0.35471260    -0.01500
Br283      Br  0.16491005  0.05516795  0.32925749     0.00000
Br284      Br  0.16064969  0.05658772  0.42139404    -0.00100
Br285      Br  0.23954336  0.14445655  0.33009561     0.00000
Br286      Br  0.23923191  0.14219888  0.42238587     0.00000
C287        C  0.20974480  0.12659271  0.14451861    -0.01100
C288        C  0.18941276  0.11091004  0.16581099     0.08500
C289        C  0.17732560  0.08759085  0.14573610    -0.01300
C290        C  0.17511795  0.08843790  0.10522316    -0.01300
C291        C  0.18646428  0.11199334  0.08443518     0.08700
C292        C  0.20864881  0.12666215  0.10387596    -0.01500
Br293      Br  0.24217250  0.13904089  0.07637344     0.00000
Br294      Br  0.24340387  0.14100381  0.16943192    -0.00100
Br295      Br  0.16385812  0.05378877  0.07915482     0.00000
Br296      Br  0.17219331  0.05134994  0.17153887     0.00000
C297        C  0.07977514  0.37248619  0.38982775    -0.01100
C298        C  0.10155101  0.35838853  0.41006101     0.08500
C299        C  0.11436613  0.33596512  0.38915245    -0.01300
C300        C  0.11493995  0.33679040  0.34848120    -0.01300
C301        C  0.10265070  0.36006428  0.32858524     0.08700
C302        C  0.08048079  0.37365980  0.34917498    -0.01500
Br303      Br  0.04677986  0.38636942  0.32312974     0.00000
Br304      Br  0.04473665  0.38174477  0.41569785    -0.00100
Br305      Br  0.12469186  0.30218922  0.32129320     0.00000
Br306      Br  0.12271398  0.30030161  0.41444664     0.00000
C307        C  0.12212701  0.38747021  0.09846303    -0.01100
C308        C  0.11103075  0.36364154  0.07816910     0.08500
C309        C  0.11040296  0.33767833  0.09923068    -0.01300
C310        C  0.11055664  0.33794294  0.13987465    -0.01300
C311        C  0.11157425  0.36411533  0.16034290     0.08700
C312        C  0.12257671  0.38761125  0.13921847    -0.01500
Br313      Br  0.14556576  0.41614170  0.16449544     0.00000
Br314      Br  0.14358803  0.41658612  0.07171081    -0.00100
Br315      Br  0.11595245  0.30211278  0.16628541     0.00000
Br316      Br  0.11593840  0.30144339  0.07366726     0.00000
C317        C  0.31425094  0.03503534  0.25712028    -0.01100
C318        C  0.30660085  0.00624325  0.25291404     0.08500
C319        C  0.27807098  0.49842322  0.24955226    -0.01300
C320        C  0.25713905  0.01934461  0.25116337    -0.01300
C321        C  0.26472076  0.04814638  0.25504163     0.08700
C322        C  0.29327677  0.05607119  0.25791217    -0.01500
Br323      Br  0.30332783  0.09570455  0.26173777     0.00000
Br324      Br  0.35353111  0.04527835  0.26009270    -0.00100
Br325      Br  0.21790937  0.00895666  0.24798162     0.00000
Br326      Br  0.26792061  0.45907765  0.24212955     0.00000
C327        C  0.27033100  0.49438711  0.49929859    -0.01100
C328        C  0.29888703  0.00253294  0.49911268     0.08500
C329        C  0.30642979  0.03153806  0.99872001    -0.01300
C330        C  0.28536115  0.05237761  0.99721242    -0.01300
C331        C  0.25685947  0.04416672  0.49755862     0.08700
C332        C  0.24929148  0.01524982  0.49921229    -0.01500
Br333      Br  0.21007546  0.00467609  0.50198685     0.00000
Br334      Br  0.26040032  0.45462549  0.49953562    -0.00100
Br335      Br  0.29502882  0.09221233  0.99491104     0.00000
Br336      Br  0.34551486  0.04240507  0.00140172     0.00000
C337        C  0.34394703  0.42529028  0.39414633    -0.01100
C338        C  0.36930310  0.42293636  0.41547078     0.08500
C339        C  0.39244885  0.41074756  0.39541151    -0.01300
C340        C  0.39298341  0.41028054  0.35479723    -0.01300
C341        C  0.37071917  0.42257499  0.33342388     0.08700
C342        C  0.34468064  0.42565678  0.35350860    -0.01500
Br343      Br  0.30890076  0.42470442  0.32675692     0.00000
Br344      Br  0.30753886  0.42083449  0.41898502    -0.00100
Br345      Br  0.42069938  0.38640014  0.32981172     0.00000
Br346      Br  0.42083679  0.38913379  0.42246721     0.00000
C347        C  0.37485208  0.45512181  0.10419405    -0.01100
C348        C  0.37424593  0.42892983  0.08347639     0.08500
C349        C  0.38435555  0.40480015  0.10385151    -0.01300
C350        C  0.38517358  0.40482017  0.14443859    -0.01300
C351        C  0.37620471  0.42899998  0.16546854     0.08700
C352        C  0.37642268  0.45513980  0.14479208    -0.01500
Br353      Br  0.38668336  0.49072613  0.16973503     0.00000
Br354      Br  0.37992024  0.49138046  0.07828140    -0.00100
Br355      Br  0.40441826  0.37398009  0.17015888     0.00000
Br356      Br  0.40310921  0.37395667  0.07729008     0.00000
C357        C  0.01381276  0.24616517  0.24097930    -0.01100
C358        C  0.98558870  0.25411518  0.24672556     0.08500
C359        C  0.97876426  0.28305515  0.25120583    -0.01300
C360        C  0.99998319  0.30406196  0.24790435    -0.01300
C361        C  0.02812955  0.29605711  0.24145243     0.08700
C362        C  0.03505641  0.26708173  0.23869254    -0.01500
Br363      Br  0.07390494  0.25629961  0.23323392     0.00000
Br364      Br  0.52326473  0.20644031  0.23810085    -0.00100
Br365      Br  0.99088816  0.34381271  0.25192954     0.00000
Br366      Br  0.44049278  0.29355193  0.26248587     0.00000
C367        C  0.01272148  0.24394855  0.99979875    -0.01100
C368        C  0.98453768  0.25300057  0.50023896     0.08500
C369        C  0.47832212  0.28221285  0.50150082    -0.01300
C370        C  0.00034793  0.30239763  0.50125971    -0.01300
C371        C  0.02849686  0.29330455  0.50098444     0.08700
C372        C  0.03469938  0.26409855  0.00043437    -0.01500
Br373      Br  0.07338514  0.25204860  0.00015822     0.00000
Br374      Br  0.02091998  0.20390888  0.99808233    -0.00100
Br375      Br  0.99244774  0.34250593  0.50005000     0.00000
Br376      Br  0.43967767  0.29419643  0.50384763     0.00000
C377        C  0.39605153  0.15844941  0.39231834    -0.01100
C378        C  0.41826162  0.17180051  0.41308977     0.08500
C379        C  0.44392516  0.17558411  0.39243365    -0.01300
C380        C  0.44409473  0.17556167  0.35176405    -0.01300
C381        C  0.41856161  0.17171970  0.33099251     0.08700
C382        C  0.39616606  0.15847905  0.35170043    -0.01500
Br383      Br  0.36871093  0.13468185  0.32563753     0.00000
Br384      Br  0.36862464  0.13435027  0.41826822    -0.00100
Br385      Br  0.48041370  0.17431426  0.32608943     0.00000
Br386      Br  0.47992044  0.17400696  0.41833175     0.00000
C387        C  0.40958836  0.20225299  0.10158299    -0.01100
C388        C  0.41060289  0.17607106  0.08104582     0.08500
C389        C  0.40238287  0.15156353  0.10217434    -0.01300
C390        C  0.40301538  0.15180907  0.14280611    -0.01300
C391        C  0.41246120  0.17641769  0.16301997     0.08700
C392        C  0.41096449  0.20248666  0.14216572    -0.01500
Br393      Br  0.40420515  0.23859790  0.16769506     0.00000
Br394      Br  0.39942521  0.23749213  0.07608955    -0.00100
Br395      Br  0.38481635  0.12057711  0.16974320     0.00000
Br396      Br  0.38427094  0.11976696  0.07659076     0.00000
C397        C  0.41671239  0.17474197  0.95748531     0.30700
C398        C  0.41369894  0.17518614  0.53665705     0.30700
C399        C  0.42714475  0.14794811  0.97818300    -0.05500
C400        C  0.43329619  0.19877935  0.97769832    -0.06300
C401        C  0.38731234  0.17968055  0.97509222    -0.06100
C402        C  0.42628689  0.14826541  0.51816901    -0.05500
C403        C  0.43274287  0.19815974  0.51783167    -0.06300
C404        C  0.38551326  0.17853405  0.51526813    -0.06100
C405        C  0.44326833  0.12620339  0.53035040    -0.31500
N406        N  0.45340817  0.11235265  0.49908872     0.15000
C407        C  0.44383895  0.12548549  0.96724828    -0.31500
H408        H  0.44992289  0.12000997  0.93825531     0.16900
C409        C  0.45207333  0.21813140  0.53023568    -0.30500
N410        N  0.46224049  0.23233689  0.99934990     0.13700
C411        C  0.45065289  0.22114923  0.96720091    -0.30500
C412        C  0.36121989  0.19258737  0.52564140    -0.30800
N413        N  0.34930136  0.20380729  0.49396532     0.14200
H414        H  0.35470795  0.19751399  0.55464773     0.16800
C415        C  0.36547113  0.19697188  0.96329825    -0.30800
H416        H  0.36287921  0.20571912  0.93484496     0.16800
H417        H  0.45572108  0.22792770  0.93834287     0.16800
H418        H  0.44924866  0.12169166  0.55962384     0.16900
H419        H  0.45870177  0.22182353  0.55947837     0.16800
C420        C  0.41580128  0.17583390  0.70738330     0.30700
C421        C  0.41735579  0.17470831  0.78659543     0.30700
C422        C  0.42773069  0.14856370  0.72573144    -0.05500
C423        C  0.43485404  0.19844256  0.72694289    -0.06300
C424        C  0.38739554  0.17971146  0.72814829    -0.06100
C425        C  0.42810317  0.14794223  0.76570028    -0.05500
C426        C  0.43445835  0.19885089  0.76709440    -0.06300
C427        C  0.38813809  0.17987282  0.76834357    -0.06100
C428        C  0.44472127  0.12526422  0.77634540    -0.31500
N429        N  0.45446822  0.11218155  0.74434098     0.15000
C430        C  0.44468452  0.12642862  0.71330789    -0.31500
H431        H  0.45088456  0.12214508  0.68398922     0.16900
C432        C  0.45136428  0.22135901  0.77843830    -0.30500
N433        N  0.46384609  0.23270927  0.74693477     0.13700
C434        C  0.45456247  0.21847557  0.71552866    -0.30500
C435        C  0.36527172  0.19608752  0.78006261    -0.30800
N436        N  0.35031389  0.20422415  0.74891041     0.14200
H437        H  0.36147473  0.20374142  0.80887691     0.16800
C438        C  0.36374409  0.19460569  0.71731740    -0.30800
H439        H  0.35811073  0.20033583  0.68832090     0.16800
H440        H  0.46180275  0.22238842  0.68662626     0.16800
H441        H  0.45061969  0.11962624  0.80528302     0.16900
H442        H  0.45542893  0.22820786  0.80761888     0.16800
C443        C  0.36979325  0.42619613  0.95982633     0.30700
C444        C  0.37088628  0.42802603  0.53911331     0.30700
C445        C  0.39814214  0.43423440  0.97808886    -0.05500
C446        C  0.35060711  0.44863063  0.97924091    -0.06300
C447        C  0.36169208  0.39855885  0.98084053    -0.06100
C448        C  0.39885337  0.43448186  0.51815409    -0.05500
C449        C  0.35022674  0.44857682  0.51946065    -0.06300
C450        C  0.36100512  0.39974053  0.52088135    -0.06100
C451        C  0.42245396  0.44984603  0.52852590    -0.31500
N452        N  0.43578536  0.45905666  0.99644334     0.15000
C453        C  0.42083972  0.45036154  0.96558128    -0.31500
H454        H  0.42488964  0.45714473  0.93641104     0.16900
C455        C  0.33005316  0.46780501  0.53085351    -0.30500
N456        N  0.32025418  0.48119060  0.99929778     0.13700
C457        C  0.33289950  0.47016610  0.96777706    -0.30500
C458        C  0.34297375  0.37803979  0.53253975    -0.30800
N459        N  0.33532741  0.36249671  0.00141324     0.14200
H460        H  0.33515525  0.37452413  0.56134616     0.16800
C461        C  0.34656814  0.37486164  0.96982246    -0.30800
H462        H  0.34165639  0.36871092  0.94068603     0.16800
H463        H  0.32888422  0.47694966  0.93868164     0.16800
H464        H  0.42840532  0.45573657  0.55738106     0.16900
H465        H  0.32318085  0.47209749  0.55989177     0.16800
C466        C  0.37376652  0.42785107  0.70989012     0.30700
C467        C  0.37263947  0.42577769  0.78907164     0.30700
C468        C  0.40249127  0.43039622  0.73000708    -0.05500
C469        C  0.35601194  0.45079259  0.73034436    -0.06300
C470        C  0.36079561  0.40079541  0.72790214    -0.06100
C471        C  0.40202463  0.43010269  0.77037557    -0.05500
C472        C  0.35665342  0.45065280  0.77043722    -0.06300
C473        C  0.36069003  0.39969264  0.76780314    -0.06100
C474        C  0.42509059  0.44636435  0.78174086    -0.31500
N475        N  0.43984827  0.45484562  0.75036436     0.15000
C476        C  0.42616778  0.44543118  0.71894697    -0.31500
H477        H  0.43150170  0.45163134  0.68993535     0.16900
C478        C  0.34026967  0.47300934  0.78275108    -0.30500
N479        N  0.32786678  0.48481234  0.75175256     0.13700
C480        C  0.33664890  0.47104763  0.71982061    -0.30500
C481        C  0.34502425  0.37615558  0.77839132    -0.30800
N482        N  0.33548405  0.36307797  0.74630622     0.14200
H483        H  0.33975644  0.36975127  0.80735608     0.16800
C484        C  0.34466625  0.37799723  0.71530354    -0.30800
H485        H  0.33876070  0.37350197  0.68597104     0.16800
H486        H  0.32908171  0.47527157  0.69117132     0.16800
H487        H  0.42900317  0.45403891  0.81050275     0.16900
H488        H  0.33625981  0.47924898  0.81212176     0.16800
O489        O  0.47833025  0.47520492  0.97006913    -0.77800
C490        C  0.02402071  0.03011159  0.89164057     0.83300
O491        O  0.07495180  0.47912137  0.51478506    -0.78900
O492        O  0.06592566  0.08291532  0.97932939    -0.80400
O493        O  0.46849975  0.06827043  0.52141055    -0.80200
O494        O  0.46117582  0.49723843  0.52144697    -0.78800
Zn495      Zn  0.01694947  0.49325803  0.96206771     1.55700
O496        O  0.99414744  0.09014845  0.97654101    -0.80200
Cd497      Cd  0.48939422  0.03017179  0.52869203     1.59700
Cd498      Cd  0.05783879  0.01917478  0.52551585     1.59600
O499        O  0.50162016  0.02893920  0.58384583    -0.80200
O500        O  0.02304815  0.02595843  0.99508434    -1.90700
Cd501      Cd  0.02771519  0.06268707  0.96666185     1.59900
O502        O  0.04781444  0.02013827  0.58230239    -0.80200
O503        O  0.02767925  0.05349073  0.90939210    -0.78800
C504        C  0.06742834  0.45938938  0.99180406     0.83700
C505        C  0.45943846  0.47806408  0.99581447     0.83400
O506        O  0.01973209  0.50652682  0.90858845    -0.77800
C507        C  0.47297884  0.08928457  0.49918399     0.84200
O508        O  0.04630237  0.46229900  0.96970498    -0.77900
C509        C  0.02495129  0.02458838  0.60033278     0.84300
C510        C  0.08685419  0.07539141  0.99975759     0.84600
O511        O  0.08702320  0.05181265  0.51789324    -0.80300
O512        O  0.05072106  0.46393747  0.77147408    -0.77800
C513        C  0.02458750  0.03002239  0.85023348     0.83300
O514        O  0.46265429  0.49473092  0.72460715    -0.78900
O515        O  0.99625023  0.09064896  0.76437302    -0.80400
O516        O  0.08919718  0.05129138  0.72496972    -0.79000
O517        O  0.07643099  0.48034567  0.72277995    -0.78800
Zn518      Zn  0.02015535  0.49302605  0.77997071     1.55700
O519        O  0.06898296  0.08132378  0.76605784    -0.80200
Cd520      Cd  0.05903912  0.02017859  0.71490633     1.59700
Cd521      Cd  0.48988880  0.02881532  0.71502275     1.59600
O522        O  0.04863335  0.02215423  0.65867639    -0.80200
O523        O  0.02451337  0.02588177  0.74677858    -1.90700
Cd524      Cd  0.02930952  0.06259939  0.77528112     1.59900
O525        O  0.50180124  0.02727705  0.65908776    -0.80200
O526        O  0.02738825  0.05348562  0.83243993    -0.78800
C527        C  0.46269486  0.47496983  0.74964744     0.83700
C528        C  0.07062122  0.46107097  0.74721612     0.83400
O529        O  0.02203381  0.50620973  0.83332656    -0.77800
C530        C  0.09000441  0.07365090  0.74566891     0.84200
O531        O  0.48269897  0.47251934  0.77357639    -0.77900
C532        C  0.02520660  0.02468362  0.64162937     0.84300
C533        C  0.47406933  0.08899231  0.74383829     0.84600
O534        O  0.46863067  0.06709948  0.72344718    -0.80300
C535        C  0.10482416  0.36124779  0.95431274     0.30700
C536        C  0.10763387  0.36376575  0.53371061     0.30700
C537        C  0.09887848  0.39076609  0.97287111    -0.05500
C538        C  0.08461183  0.34172922  0.97657142    -0.06300
C539        C  0.13372630  0.35415809  0.97254177    -0.06100
C540        C  0.09937118  0.39165139  0.51311381    -0.05500
C541        C  0.08538898  0.34334906  0.51647926    -0.06300
C542        C  0.13479836  0.35544797  0.51252271    -0.06100
C543        C  0.08791907  0.41742054  0.52390013    -0.31500
N544        N  0.08230225  0.43284379  0.99201901     0.15000
C545        C  0.08927396  0.41707675  0.96081908    -0.31500
H546        H  0.08612432  0.42383584  0.93152003     0.16900
C547        C  0.06356329  0.32638490  0.52986234    -0.30500
N548        N  0.05093040  0.31376826  0.99939422     0.13700
C549        C  0.06344332  0.32303241  0.96678459    -0.30500
C550        C  0.16101930  0.34632756  0.52373265    -0.30800
N551        N  0.17593082  0.33910510  0.99206892     0.14200
H552        H  0.16796639  0.34312590  0.55292718     0.16800
C553        C  0.15984423  0.34431342  0.96069528    -0.30800
H554        H  0.16635883  0.33997814  0.93154053     0.16800
H555        H  0.05726730  0.31686540  0.93810434     0.16800
H556        H  0.08268533  0.42391844  0.55281787     0.16900
H557        H  0.05739815  0.32322057  0.55945540     0.16800
C558        C  0.10845512  0.36473953  0.70486672     0.30700
C559        C  0.10601881  0.36324349  0.78435371     0.30700
C560        C  0.10122662  0.39312905  0.72519803    -0.05500
C561        C  0.08566088  0.34520527  0.72287917    -0.06300
C562        C  0.13547220  0.35585292  0.72576602    -0.06100
C563        C  0.10094409  0.39260946  0.76551415    -0.05500
C564        C  0.08510395  0.34415004  0.76277369    -0.06300
C565        C  0.13473725  0.35577619  0.76578373    -0.06100
C566        C  0.09268917  0.41924909  0.77756112    -0.31500
N567        N  0.08591727  0.43494442  0.74639722     0.15000
C568        C  0.09067819  0.41922735  0.71444264    -0.31500
H569        H  0.08516709  0.42566832  0.68565821     0.16900
C570        C  0.06329860  0.32645659  0.77353947    -0.30500
N571        N  0.05019116  0.31707570  0.74156713     0.13700
C572        C  0.06323685  0.32860682  0.71043142    -0.30500
C573        C  0.16132559  0.34766546  0.77771537    -0.30800
N574        N  0.17702392  0.34094235  0.74638468     0.14200
H575        H  0.16806703  0.34467609  0.80702194     0.16800
C576        C  0.16156357  0.34621926  0.71460960    -0.30800
H577        H  0.16837239  0.34203832  0.68550539     0.16800
H578        H  0.05708020  0.32482154  0.68102787     0.16800
H579        H  0.08992147  0.42621117  0.80689111     0.16900
H580        H  0.05731500  0.32076552  0.80252664     0.16800
C581        C  0.18282504  0.11462109  0.54021411     0.30700
C582        C  0.18178349  0.11598297  0.96072995     0.30700
C583        C  0.18795479  0.14409388  0.52123213    -0.05500
C584        C  0.20360708  0.09558311  0.51917792    -0.06300
C585        C  0.15426258  0.10656673  0.52112123    -0.06100
C586        C  0.18718581  0.14479202  0.98101724    -0.05500
C587        C  0.20316014  0.09615404  0.97954669    -0.06300
C588        C  0.15372954  0.10773513  0.98082110    -0.06100
C589        C  0.19267766  0.17251845  0.97010048    -0.31500
N590        N  0.19881400  0.18800946  0.00179328     0.15000
C591        C  0.19456915  0.17134472  0.53309846    -0.31500
H592        H  0.19821545  0.17816881  0.56229146     0.16900
C593        C  0.22316805  0.07714655  0.96692002    -0.30500
N594        N  0.23545682  0.06536096  0.99803518     0.13700
C595        C  0.22376164  0.07638994  0.53008260    -0.30500
C596        C  0.12674864  0.10057994  0.96956652    -0.30800
N597        N  0.11159929  0.09306781  0.00099892     0.14200
H598        H  0.11932210  0.09861438  0.94039395     0.16800
C599        C  0.12770331  0.09761911  0.53257160    -0.30800
H600        H  0.12086996  0.09334107  0.56163470     0.16800
H601        H  0.22940772  0.07062759  0.55907908     0.16800
H602        H  0.19490066  0.18023568  0.94102447     0.16900
H603        H  0.22829456  0.07207052  0.93745575     0.16800
C604        C  0.18448400  0.11513968  0.78944067     0.30700
C605        C  0.18679387  0.11353245  0.71004863     0.30700
C606        C  0.18840335  0.14419414  0.76884873    -0.05500
C607        C  0.20772914  0.09698121  0.77124589    -0.06300
C608        C  0.15736670  0.10473924  0.76881962    -0.06100
C609        C  0.18949594  0.14342514  0.72860786    -0.05500
C610        C  0.20893143  0.09632780  0.73154022    -0.06300
C611        C  0.15879029  0.10356665  0.72870921    -0.06100
C612        C  0.19463056  0.17099296  0.71636913    -0.31500
N613        N  0.19823413  0.18791842  0.74750788     0.15000
C614        C  0.19298483  0.17211963  0.77937302    -0.31500
H615        H  0.19494078  0.18004020  0.80836398     0.16900
C616        C  0.23105979  0.07908409  0.72138852    -0.30500
N617        N  0.24325450  0.06937227  0.75384946     0.13700
C618        C  0.22917189  0.07995438  0.78452708    -0.30500
C619        C  0.13273363  0.09449574  0.71601508    -0.30800
N620        N  0.11574639  0.08983507  0.74671179     0.14200
H621        H  0.12658891  0.09085474  0.68658137     0.16800
C622        C  0.13005045  0.09714315  0.77891333    -0.30800
H623        H  0.12161460  0.09553182  0.80769704     0.16800
H624        H  0.23381009  0.07507836  0.81415106     0.16800
H625        H  0.19838148  0.17775296  0.68715436     0.16900
H626        H  0.23741670  0.07336657  0.69258416     0.16800
O627        O  0.24431124  0.27136979  0.91034628    -0.77800
C628        C  0.21638476  0.21295492  0.00129667     0.83300
O629        O  0.22118460  0.33027676  0.51573699    -0.78900
O630        O  0.27221168  0.25476228  0.58498444    -0.80400
O631        O  0.32744440  0.24530771  0.97221936    -0.80200
O632        O  0.29021900  0.28253514  0.90957751    -0.78800
Zn633      Zn  0.23236920  0.26985535  0.96471446     1.55700
O634        O  0.30646262  0.21993490  0.51816589    -0.80200
Cd635      Cd  0.30080347  0.28018268  0.96600279     1.59700
Cd636      Cd  0.25988818  0.31139868  0.52757281     1.59600
O637        O  0.32192707  0.31763074  0.97934637    -0.80200
O638        O  0.26534157  0.27610500  0.99645337    -1.90700
Cd639      Cd  0.27005135  0.24228567  0.52974220     1.59900
O640        O  0.29333657  0.34000102  0.52022016    -0.80200
O641        O  0.23613776  0.21488962  0.52575172    -0.78800
C642        C  0.20153191  0.32301897  0.99277913     0.83700
C643        C  0.26703111  0.27749443  0.89277814     0.83400
O644        O  0.21320261  0.23163983  0.97519369    -0.77800
C645        C  0.32662477  0.22381067  0.49453400     0.84200
O646        O  0.20347270  0.30093549  0.97175284    -0.77900
C647        C  0.31606327  0.33889384  0.50059911     0.84300
C648        C  0.26622436  0.27781968  0.60187800     0.84600
O649        O  0.25969096  0.30059966  0.58448523    -0.80300
O650        O  0.21207315  0.23264030  0.72295286    -0.77800
C651        C  0.20233432  0.32442683  0.74676738     0.83300
O652        O  0.29035561  0.27885939  0.65956364    -0.78900
O653        O  0.29423413  0.34031449  0.76666969    -0.80400
O654        O  0.26829406  0.25387329  0.83485009    -0.80200
O655        O  0.23573183  0.21420245  0.77180786    -0.78800
Zn656      Zn  0.23181935  0.27138253  0.71508765     1.55700
O657        O  0.26417334  0.30131192  0.83433521    -0.80200
Cd658      Cd  0.26905929  0.24183636  0.77932310     1.59700
Cd659      Cd  0.30110337  0.27924901  0.71593760     1.59600
O660        O  0.30657227  0.21991923  0.77128455    -0.80200
O661        O  0.26542363  0.27616682  0.74641280    -1.90700
Cd662      Cd  0.26147167  0.31178971  0.77751979     1.59900
O663        O  0.32815863  0.24506266  0.72560542    -0.80200
O664        O  0.22246156  0.33125456  0.76915495    -0.78800
C665        C  0.26662326  0.27763649  0.64293635     0.83700
C666        C  0.21572499  0.21298039  0.74766230     0.83400
O667        O  0.20374860  0.30264572  0.72509717    -0.77800
C668        C  0.26657223  0.27768543  0.85171866     0.84200
O669        O  0.24330305  0.27505751  0.66062280    -0.77900
C670        C  0.32733485  0.22396662  0.74866166     0.84300
C671        C  0.31637272  0.33933090  0.74586164     0.84600
O672        O  0.32212338  0.31773090  0.72518214    -0.80300
C673        C  0.17157780  0.09151793  0.89538872    -0.01100
C674        C  0.18387753  0.11449937  0.91620650     0.08500
C675        C  0.20546955  0.12947836  0.89594337    -0.01300
C676        C  0.20597970  0.12960980  0.85523780    -0.01300
C677        C  0.18544507  0.11397952  0.83409373     0.08700
C678        C  0.17269957  0.09108926  0.85471256    -0.01500
Br679      Br  0.16490990  0.05516795  0.82925746     0.00000
Br680      Br  0.16064957  0.05658758  0.92139382    -0.00100
Br681      Br  0.23954340  0.14445653  0.83009563     0.00000
Br682      Br  0.23923193  0.14219887  0.92238586     0.00000
C683        C  0.20974482  0.12659268  0.64451863    -0.01100
C684        C  0.18941275  0.11091005  0.66581100     0.08500
C685        C  0.17732550  0.08759093  0.64573608    -0.01300
C686        C  0.17511781  0.08843803  0.60522316    -0.01300
C687        C  0.18646421  0.11199343  0.58443519     0.08700
C688        C  0.20864881  0.12666215  0.60387598    -0.01500
Br689      Br  0.24217253  0.13904088  0.57637346     0.00000
Br690      Br  0.24340391  0.14100378  0.66943193    -0.00100
Br691      Br  0.16385796  0.05378893  0.57915482     0.00000
Br692      Br  0.17219336  0.05134993  0.67153867     0.00000
C693        C  0.07977513  0.37248621  0.88982771    -0.01100
C694        C  0.10155095  0.35838849  0.91006100     0.08500
C695        C  0.11436602  0.33596506  0.88915243    -0.01300
C696        C  0.11493986  0.33679035  0.84848117    -0.01300
C697        C  0.10265068  0.36006428  0.82858524     0.08700
C698        C  0.08048079  0.37365981  0.84917497    -0.01500
Br699      Br  0.04677987  0.38636943  0.82312972     0.00000
Br700      Br  0.04473664  0.38174479  0.91569767    -0.00100
Br701      Br  0.12469189  0.30218925  0.82129302     0.00000
Br702      Br  0.12271402  0.30030160  0.91444663     0.00000
C703        C  0.12212697  0.38747025  0.59846305    -0.01100
C704        C  0.11103077  0.36364155  0.57816911     0.08500
C705        C  0.11040302  0.33767832  0.59923069    -0.01300
C706        C  0.11055670  0.33794293  0.63987467    -0.01300
C707        C  0.11157428  0.36411532  0.66034292     0.08700
C708        C  0.12257671  0.38761126  0.63921849    -0.01500
Br709      Br  0.14556582  0.41614169  0.66449545     0.00000
Br710      Br  0.14358807  0.41658611  0.57171083    -0.00100
Br711      Br  0.11595250  0.30211278  0.66628543     0.00000
Br712      Br  0.11593845  0.30144338  0.57366728     0.00000
C713        C  0.31425095  0.03503527  0.75712027    -0.01100
C714        C  0.30660086  0.00624318  0.75291423     0.08500
C715        C  0.27807097  0.49842315  0.74955213    -0.01300
C716        C  0.25713905  0.01934456  0.75116376    -0.01300
C717        C  0.26472076  0.04814631  0.75504189     0.08700
C718        C  0.29327678  0.05607111  0.75791221    -0.01500
Br719      Br  0.30332788  0.09570442  0.76173751     0.00000
Br720      Br  0.35353114  0.04527834  0.76009215    -0.00100
Br721      Br  0.21790937  0.00895663  0.74798248     0.00000
Br722      Br  0.26792065  0.45907751  0.74212957     0.00000
C723        C  0.27033099  0.49438699  0.99929862    -0.01100
C724        C  0.29888704  0.00253277  0.99911270     0.08500
C725        C  0.30642972  0.03153822  0.49872002    -0.01300
C726        C  0.28536108  0.05237777  0.49721248    -0.01300
C727        C  0.25685953  0.04416661  0.99755860     0.08700
C728        C  0.24929154  0.01524971  0.99921244    -0.01500
Br729      Br  0.21007555  0.00467606  0.00198713     0.00000
Br730      Br  0.26040020  0.45462534  0.99953564    -0.00100
Br731      Br  0.29502876  0.09221252  0.49491130     0.00000
Br732      Br  0.34551476  0.04240512  0.50140202     0.00000
C733        C  0.34394706  0.42529029  0.89414630    -0.01100
C734        C  0.36930313  0.42293636  0.91547078     0.08500
C735        C  0.39244887  0.41074752  0.89541152    -0.01300
C736        C  0.39298339  0.41028042  0.85479723    -0.01300
C737        C  0.37071916  0.42257487  0.83342385     0.08700
C738        C  0.34468066  0.42565674  0.85350858    -0.01500
Br739      Br  0.30890078  0.42470442  0.82675691     0.00000
Br740      Br  0.30753888  0.42083449  0.91898486    -0.00100
Br741      Br  0.42069944  0.38640013  0.82981173     0.00000
Br742      Br  0.42083684  0.38913379  0.92246723     0.00000
C743        C  0.37485212  0.45512189  0.60419401    -0.01100
C744        C  0.37424591  0.42892990  0.58347636     0.08500
C745        C  0.38435549  0.40480020  0.60385147    -0.01300
C746        C  0.38517350  0.40482017  0.64443855    -0.01300
C747        C  0.37620467  0.42900000  0.66546850     0.08700
C748        C  0.37642272  0.45513984  0.64479204    -0.01500
Br749      Br  0.38668342  0.49072613  0.66973504     0.00000
Br750      Br  0.37992029  0.49138061  0.57828142    -0.00100
Br751      Br  0.40441829  0.37398011  0.67015887     0.00000
Br752      Br  0.40310907  0.37395667  0.57729009     0.00000
C753        C  0.01381279  0.24616513  0.74097958    -0.01100
C754        C  0.98558870  0.25411513  0.74672566     0.08500
C755        C  0.97876423  0.28305510  0.75120575    -0.01300
C756        C  0.99998315  0.30406192  0.74790417    -0.01300
C757        C  0.02812954  0.29605708  0.74145246     0.08700
C758        C  0.03505644  0.26708169  0.73869285    -0.01500
Br759      Br  0.07390500  0.25629961  0.73323451     0.00000
Br760      Br  0.52326479  0.20644025  0.73810117    -0.00100
Br761      Br  0.99088802  0.34381269  0.75192898     0.00000
Br762      Br  0.44049283  0.29355193  0.76248559     0.00000
C763        C  0.01272152  0.24394853  0.49979877    -0.01100
C764        C  0.98453764  0.25300058  0.00023897     0.08500
C765        C  0.47832206  0.28221289  0.00150078    -0.01300
C766        C  0.00034784  0.30239770  0.00125987    -0.01300
C767        C  0.02849678  0.29330461  0.00098448     0.08700
C768        C  0.03469944  0.26409850  0.50043439    -0.01500
Br769      Br  0.07338520  0.25204858  0.50015824     0.00000
Br770      Br  0.02091994  0.20390886  0.49808259    -0.00100
Br771      Br  0.99244761  0.34250606  0.00005031     0.00000
Br772      Br  0.43967761  0.29419644  0.00384734     0.00000
C773        C  0.39605157  0.15844931  0.89231836    -0.01100
C774        C  0.41826163  0.17180047  0.91308978     0.08500
C775        C  0.44392516  0.17558411  0.89243363    -0.01300
C776        C  0.44409473  0.17556164  0.85176404    -0.01300
C777        C  0.41856160  0.17171962  0.83099251     0.08700
C778        C  0.39616608  0.15847894  0.85170044    -0.01500
Br779      Br  0.36871099  0.13468166  0.82563755     0.00000
Br780      Br  0.36862466  0.13435023  0.91826825    -0.00100
Br781      Br  0.48041373  0.17431425  0.82608944     0.00000
Br782      Br  0.47992048  0.17400696  0.91833157     0.00000
C783        C  0.40958839  0.20225298  0.60158301    -0.01100
C784        C  0.41060294  0.17607105  0.58104581     0.08500
C785        C  0.40238292  0.15156352  0.60217431    -0.01300
C786        C  0.40301538  0.15180904  0.64280607    -0.01300
C787        C  0.41246117  0.17641765  0.66301999     0.08700
C788        C  0.41096450  0.20248663  0.64216574    -0.01500
Br789      Br  0.40420520  0.23859789  0.66769508     0.00000
Br790      Br  0.39942508  0.23749210  0.57608957    -0.00100
Br791      Br  0.38481621  0.12057711  0.66974301     0.00000
Br792      Br  0.38427099  0.11976696  0.57659074     0.00000
C793        C  0.41671242  0.67474204  0.45748528     0.30700
C794        C  0.41369895  0.67518610  0.03665705     0.30700
C795        C  0.42714482  0.64794818  0.47818291    -0.05500
C796        C  0.43329620  0.69877943  0.47769831    -0.06300
C797        C  0.38731238  0.67968060  0.47509220    -0.06100
C798        C  0.42628689  0.64826537  0.01816902    -0.05500
C799        C  0.43274286  0.69815972  0.01783162    -0.06300
C800        C  0.38551327  0.67853401  0.01526812    -0.06100
C801        C  0.44326836  0.62620337  0.03035043    -0.31500
N802        N  0.45340820  0.61235262  0.99908875     0.15000
C803        C  0.44383902  0.62548556  0.46724823    -0.31500
H804        H  0.44992298  0.62000999  0.43825510     0.16900
C805        C  0.45207332  0.71813139  0.03023562    -0.30500
N806        N  0.46224048  0.73233697  0.49934996     0.13700
C807        C  0.45065287  0.72114935  0.46720095    -0.30500
C808        C  0.36121992  0.69258736  0.02564142    -0.30800
N809        N  0.34930140  0.70380728  0.99396531     0.14200
H810        H  0.35470801  0.69751400  0.05464764     0.16800
C811        C  0.36547113  0.69697192  0.46329827    -0.30800
H812        H  0.36287919  0.70571920  0.43484500     0.16800
H813        H  0.45572104  0.72792788  0.43834290     0.16800
H814        H  0.44924871  0.62169166  0.05962387     0.16900
H815        H  0.45870171  0.72182353  0.05947825     0.16800
C816        C  0.41580133  0.67583391  0.20738329     0.30700
C817        C  0.41735580  0.67470829  0.28659543     0.30700
C818        C  0.42773070  0.64856369  0.22573143    -0.05500
C819        C  0.43485409  0.69844254  0.22694289    -0.06300
C820        C  0.38739559  0.67971153  0.22814825    -0.06100
C821        C  0.42810316  0.64794220  0.26570026    -0.05500
C822        C  0.43445839  0.69885086  0.26709439    -0.06300
C823        C  0.38813811  0.67987282  0.26834354    -0.06100
C824        C  0.44472132  0.62526425  0.27634537    -0.31500
N825        N  0.45446831  0.61218160  0.24434096     0.15000
C826        C  0.44468458  0.62642865  0.21330787    -0.31500
H827        H  0.45088465  0.62214516  0.18398920     0.16900
C828        C  0.45136430  0.72135901  0.27843830    -0.30500
N829        N  0.46384614  0.73270922  0.24693477     0.13700
C830        C  0.45456252  0.71847555  0.21552864    -0.30500
C831        C  0.36527171  0.69608747  0.28006260    -0.30800
N832        N  0.35031392  0.70422416  0.24891039     0.14200
H833        H  0.36147469  0.70374137  0.30887691     0.16800
C834        C  0.36374416  0.69460578  0.21731738    -0.30800
H835        H  0.35811083  0.70033602  0.18832085     0.16800
H836        H  0.46180276  0.72238844  0.18662628     0.16800
H837        H  0.45061977  0.61962631  0.30528301     0.16900
H838        H  0.45542887  0.72820790  0.30761883     0.16800
C839        C  0.36979320  0.92619622  0.45982637     0.30700
C840        C  0.37088629  0.92802595  0.03911335     0.30700
C841        C  0.39814211  0.93423440  0.47808888    -0.05500
C842        C  0.35060710  0.94863074  0.47924096    -0.06300
C843        C  0.36169197  0.89855895  0.48084056    -0.06100
C844        C  0.39885337  0.93448181  0.01815412    -0.05500
C845        C  0.35022672  0.94857671  0.01946070    -0.06300
C846        C  0.36100514  0.89974045  0.02088137    -0.06100
C847        C  0.42245396  0.94984601  0.02852591    -0.31500
N848        N  0.43578535  0.95905661  0.49644336     0.15000
C849        C  0.42083970  0.95036153  0.46558129    -0.31500
H850        H  0.42488958  0.95714478  0.43641111     0.16900
C851        C  0.33005310  0.96780485  0.03085356    -0.30500
N852        N  0.32025420  0.98119077  0.49929780     0.13700
C853        C  0.33289950  0.97016622  0.46777711    -0.30500
C854        C  0.34297380  0.87803968  0.03253977    -0.30800
N855        N  0.33532739  0.86249674  0.50141324     0.14200
H856        H  0.33515532  0.87452400  0.06134617     0.16800
C857        C  0.34656809  0.87486172  0.46982249    -0.30800
H858        H  0.34165634  0.86871098  0.44068596     0.16800
H859        H  0.32888424  0.97694977  0.43868164     0.16800
H860        H  0.42840530  0.95573657  0.05738106     0.16900
H861        H  0.32318074  0.97209732  0.05989178     0.16800
C862        C  0.37376650  0.92785108  0.20989020     0.30700
C863        C  0.37263941  0.92577776  0.28907170     0.30700
C864        C  0.40249125  0.93039620  0.23000715    -0.05500
C865        C  0.35601192  0.95079263  0.23034442    -0.06300
C866        C  0.36079557  0.90079546  0.22790223    -0.06100
C867        C  0.40202458  0.93010269  0.27037563    -0.05500
C868        C  0.35665339  0.95065289  0.27043727    -0.06300
C869        C  0.36068995  0.89969269  0.26780324    -0.06100
C870        C  0.42509054  0.94636435  0.28174094    -0.31500
N871        N  0.43984822  0.95484567  0.25036443     0.15000
C872        C  0.42616775  0.94543118  0.21894707    -0.31500
H873        H  0.43150167  0.95163138  0.18993543     0.16900
C874        C  0.34026962  0.97300944  0.28275111    -0.30500
N875        N  0.32786671  0.98481239  0.25175257     0.13700
C876        C  0.33664883  0.97104762  0.21982064    -0.30500
C877        C  0.34502417  0.87615560  0.27839137    -0.30800
N878        N  0.33548402  0.86307802  0.24630623     0.14200
H879        H  0.33975631  0.86975124  0.30735612     0.16800
C880        C  0.34466626  0.87799726  0.21530358    -0.30800
H881        H  0.33876078  0.87350198  0.18597105     0.16800
H882        H  0.32908161  0.97527151  0.19117134     0.16800
H883        H  0.42900307  0.95403886  0.31050280     0.16900
H884        H  0.33625977  0.97924914  0.31212178     0.16800
O885        O  0.47833024  0.97520489  0.47006926    -0.77800
C886        C  0.02402063  0.53011156  0.39164056     0.83300
O887        O  0.07495180  0.97912137  0.01478496    -0.78900
O888        O  0.06592560  0.58291532  0.47932940    -0.80400
O889        O  0.46849982  0.56827040  0.02141056    -0.80200
O890        O  0.46117591  0.99723841  0.02144699    -0.78800
Zn891      Zn  0.01694943  0.99325801  0.46206771     1.55700
O892        O  0.99414736  0.59014842  0.47654098    -0.80200
Cd893      Cd  0.48939432  0.53017178  0.02869204     1.59700
Cd894      Cd  0.05783877  0.51917477  0.02551585     1.59600
O895        O  0.50162016  0.52893918  0.08384586    -0.80200
O896        O  0.02304811  0.52595837  0.49508431    -1.90700
Cd897      Cd  0.02771511  0.56268704  0.46666183     1.59900
O898        O  0.04781444  0.52013822  0.08230241    -0.80200
O899        O  0.02767916  0.55349070  0.40939209    -0.78800
C900        C  0.06742832  0.95938935  0.49180411     0.83700
C901        C  0.45943840  0.97806408  0.49581453     0.83400
O902        O  0.01973207  0.00652678  0.40858842    -0.77800
C903        C  0.47297888  0.58928454  0.99918400     0.84200
O904        O  0.04630237  0.96229900  0.46970500    -0.77900
C905        C  0.02495130  0.52458834  0.10033280     0.84300
C906        C  0.08685414  0.57539142  0.49975760     0.84600
O907        O  0.08702322  0.55181264  0.01789321    -0.80300
O908        O  0.05072092  0.96393739  0.27147404    -0.77800
C909        C  0.02458752  0.53002237  0.35023347     0.83300
O910        O  0.46265428  0.99473093  0.22460712    -0.78900
O911        O  0.99625032  0.59064903  0.26437303    -0.80400
O912        O  0.08919729  0.55129134  0.22496978    -0.79000
O913        O  0.07643090  0.98034563  0.22278000    -0.78800
Zn914      Zn  0.02015532  0.99302613  0.27997069     1.55700
O915        O  0.06898305  0.58132373  0.26605789    -0.80200
Cd916      Cd  0.05903918  0.52017858  0.21490633     1.59700
Cd917      Cd  0.48988879  0.52881531  0.21502273     1.59600
O918        O  0.04863339  0.52215421  0.15867639    -0.80200
O919        O  0.02451338  0.52588176  0.24677853    -1.90700
Cd920      Cd  0.02930959  0.56259939  0.27528110     1.59900
O921        O  0.50180128  0.52727701  0.15908778    -0.80200
O922        O  0.02738831  0.55348559  0.33243992    -0.78800
C923        C  0.46269480  0.97496991  0.24964753     0.83700
C924        C  0.07062111  0.96107091  0.24721613     0.83400
O925        O  0.02203394  0.00620970  0.33332654    -0.77800
C926        C  0.09000452  0.57365085  0.24566900     0.84200
O927        O  0.48269887  0.97251949  0.27357653    -0.77900
C928        C  0.02520662  0.52468359  0.14162939     0.84300
C929        C  0.47406945  0.58899239  0.24383827     0.84600
O930        O  0.46863077  0.56709953  0.22344722    -0.80300
C931        C  0.10482421  0.86124777  0.45431274     0.30700
C932        C  0.10763384  0.86376573  0.03371060     0.30700
C933        C  0.09887852  0.89076607  0.47287110    -0.05500
C934        C  0.08461187  0.84172921  0.47657141    -0.06300
C935        C  0.13372636  0.85415805  0.47254180    -0.06100
C936        C  0.09937113  0.89165137  0.01311381    -0.05500
C937        C  0.08538894  0.84334904  0.01647927    -0.06300
C938        C  0.13479834  0.85544797  0.01252269    -0.06100
C939        C  0.08791900  0.91742051  0.02390012    -0.31500
N940        N  0.08230220  0.93284374  0.49201906     0.15000
C941        C  0.08927391  0.91707671  0.46081910    -0.31500
H942        H  0.08612421  0.92383580  0.43152008     0.16900
C943        C  0.06356325  0.82638489  0.02986234    -0.30500
N944        N  0.05093040  0.81376829  0.49939421     0.13700
C945        C  0.06344334  0.82303243  0.46678458    -0.30500
C946        C  0.16101930  0.84632761  0.02373265    -0.30800
N947        N  0.17593088  0.83910507  0.49206896     0.14200
H948        H  0.16796637  0.84312601  0.05292718     0.16800
C949        C  0.15984429  0.84431339  0.46069531    -0.30800
H950        H  0.16635890  0.83997812  0.43154058     0.16800
H951        H  0.05726731  0.81686542  0.43810430     0.16800
H952        H  0.08268524  0.92391841  0.05281786     0.16900
H953        H  0.05739809  0.82322054  0.05945541     0.16800
C954        C  0.10845514  0.86473952  0.20486672     0.30700
C955        C  0.10601888  0.86324347  0.28435371     0.30700
C956        C  0.10122660  0.89312903  0.22519804    -0.05500
C957        C  0.08566097  0.84520521  0.22287918    -0.06300
C958        C  0.13547225  0.85585294  0.22576599    -0.06100
C959        C  0.10094410  0.89260944  0.26551416    -0.05500
C960        C  0.08510406  0.84414996  0.26277370    -0.06300
C961        C  0.13473731  0.85577619  0.26578370    -0.06100
C962        C  0.09268915  0.91924906  0.27756113    -0.31500
N963        N  0.08591719  0.93494438  0.24639725     0.15000
C964        C  0.09067812  0.91922731  0.21444269    -0.31500
H965        H  0.08516698  0.92566830  0.18565819     0.16900
C966        C  0.06329868  0.82645653  0.27353946    -0.30500
N967        N  0.05019123  0.81707567  0.24156709     0.13700
C968        C  0.06323694  0.82860679  0.21043141    -0.30500
C969        C  0.16132563  0.84766542  0.27771535    -0.30800
N970        N  0.17702395  0.84094229  0.24638464     0.14200
H971        H  0.16806707  0.84467603  0.30702187     0.16800
C972        C  0.16156360  0.84621922  0.21460956    -0.30800
H973        H  0.16837240  0.84203825  0.18550538     0.16800
H974        H  0.05708028  0.82482155  0.18102785     0.16800
H975        H  0.08992145  0.92621116  0.30689117     0.16900
H976        H  0.05731504  0.82076550  0.30252659     0.16800
C977        C  0.18282506  0.61462106  0.04021410     0.30700
C978        C  0.18178346  0.61598301  0.46072994     0.30700
C979        C  0.18795480  0.64409385  0.02123212    -0.05500
C980        C  0.20360711  0.59558308  0.01917791    -0.06300
C981        C  0.15426259  0.60656669  0.02112123    -0.06100
C982        C  0.18718579  0.64479205  0.48101721    -0.05500
C983        C  0.20316008  0.59615407  0.47954670    -0.06300
C984        C  0.15372949  0.60773520  0.48082107    -0.06100
C985        C  0.19267770  0.67251847  0.47010041    -0.31500
N986        N  0.19881407  0.68800948  0.50179323     0.15000
C987        C  0.19456922  0.67134467  0.03309845    -0.31500
H988        H  0.19821553  0.67816877  0.06229146     0.16900
C989        C  0.22316796  0.57714656  0.46692002    -0.30500
N990        N  0.23545673  0.56536100  0.49803517     0.13700
C991        C  0.22376166  0.57638989  0.03008261    -0.30500
C992        C  0.12674857  0.60058001  0.46956651    -0.30800
N993        N  0.11159924  0.59306785  0.50099890     0.14200
H994        H  0.11932202  0.59861449  0.44039394     0.16800
C995        C  0.12770330  0.59761910  0.03257160    -0.30800
H996        H  0.12086993  0.59334103  0.06163471     0.16800
H997        H  0.22940770  0.57062753  0.05907906     0.16800
H998        H  0.19490073  0.68023566  0.44102445     0.16900
H999        H  0.22829448  0.57207053  0.43745573     0.16800
C1000       C  0.18448404  0.61513977  0.28944066     0.30700
C1001       C  0.18679386  0.61353251  0.21004863     0.30700
C1002       C  0.18840332  0.64419423  0.26884871    -0.05500
C1003       C  0.20772921  0.59698131  0.27124585    -0.06300
C1004       C  0.15736672  0.60473935  0.26881969    -0.06100
C1005       C  0.18949590  0.64342522  0.22860783    -0.05500
C1006       C  0.20893145  0.59632787  0.23154017    -0.06300
C1007       C  0.15879030  0.60356672  0.22870927    -0.06100
C1008       C  0.19463050  0.67099304  0.21636910    -0.31500
N1009       N  0.19823408  0.68791851  0.24750785     0.15000
C1010       C  0.19298477  0.67211973  0.27937299    -0.31500
H1011       H  0.19494075  0.68004031  0.30836394     0.16900
C1012       C  0.23105975  0.57908411  0.22138843    -0.30500
N1013       N  0.24325453  0.56937229  0.25384931     0.13700
C1014       C  0.22917197  0.57995445  0.28452693    -0.30500
C1015       C  0.13273367  0.59449572  0.21601518    -0.30800
N1016       N  0.11574647  0.58983502  0.24671193     0.14200
H1017       H  0.12658896  0.59085466  0.18658149     0.16800
C1018       C  0.13005051  0.59714318  0.27891341    -0.30800
H1019       H  0.12161466  0.59553181  0.30769725     0.16800
H1020       H  0.23381022  0.57507837  0.31415095     0.16800
H1021       H  0.19838143  0.67775303  0.18715434     0.16900
H1022       H  0.23741658  0.57336655  0.19258396     0.16800
O1023       O  0.24431123  0.77136978  0.41034628    -0.77800
C1024       C  0.21638480  0.71295498  0.50129663     0.83300
O1025       O  0.22118465  0.83027674  0.01573697    -0.78900
O1026       O  0.27221160  0.75476228  0.08498440    -0.80400
O1027       O  0.32744449  0.74530778  0.47221954    -0.80200
O1028       O  0.29021900  0.78253510  0.40957747    -0.78800
Zn1029     Zn  0.23236928  0.76985535  0.46471443     1.55700
O1030       O  0.30646268  0.71993486  0.01816593    -0.80200
Cd1031     Cd  0.30080353  0.78018274  0.46600279     1.59700
Cd1032     Cd  0.25988825  0.81139866  0.02757279     1.59600
O1033       O  0.32192708  0.81763079  0.47934633    -0.80200
O1034       O  0.26534162  0.77610500  0.49645335    -1.90700
Cd1035     Cd  0.27005141  0.74228565  0.02974220     1.59900
O1036       O  0.29333656  0.84000103  0.02022011    -0.80200
O1037       O  0.23613772  0.71488974  0.02575189    -0.78800
C1038       C  0.20153198  0.82301895  0.49277915     0.83700
C1039       C  0.26703110  0.77749440  0.39277811     0.83400
O1040       O  0.21320267  0.73163987  0.47519366    -0.77800
C1041       C  0.32662481  0.72381064  0.99453402     0.84200
O1042       O  0.20347280  0.80093549  0.47175283    -0.77900
C1043       C  0.31606328  0.83889380  0.00059909     0.84300
C1044       C  0.26622439  0.77781970  0.10187798     0.84600
O1045       O  0.25969109  0.80059972  0.08448525    -0.80300
O1046       O  0.21207324  0.73264033  0.22295274    -0.77800
C1047       C  0.20233437  0.82442680  0.24676735     0.83300
O1048       O  0.29035571  0.77885937  0.15956358    -0.78900
O1049       O  0.29423416  0.84031447  0.26666963    -0.80400
O1050       O  0.26829414  0.75387327  0.33485007    -0.80200
O1051       O  0.23573176  0.71420253  0.27180792    -0.78800
Zn1052     Zn  0.23181944  0.77138252  0.21508762     1.55700
O1053       O  0.26417326  0.80131188  0.33433519    -0.80200
Cd1054     Cd  0.26905927  0.74183638  0.27932307     1.59700
Cd1055     Cd  0.30110346  0.77924902  0.21593759     1.59600
O1056       O  0.30657231  0.71991928  0.27128451    -0.80200
O1057       O  0.26542368  0.77616685  0.24641278    -1.90700
Cd1058     Cd  0.26147171  0.81178971  0.27751978     1.59900
O1059       O  0.32815873  0.74506269  0.22560542    -0.80200
O1060       O  0.22246159  0.83125453  0.26915497    -0.78800
C1061       C  0.26662335  0.77763648  0.14293633     0.83700
C1062       C  0.21572498  0.71298046  0.24766227     0.83400
O1063       O  0.20374869  0.80264571  0.22509712    -0.77800
C1064       C  0.26657221  0.77768540  0.35171865     0.84200
O1065       O  0.24330315  0.77505748  0.16062282    -0.77900
C1066       C  0.32733491  0.72396665  0.24866166     0.84300
C1067       C  0.31637273  0.83933092  0.24586159     0.84600
O1068       O  0.32212346  0.81773093  0.22518209    -0.80300
C1069       C  0.17157777  0.59151805  0.39538867    -0.01100
C1070       C  0.18387753  0.61449943  0.41620647     0.08500
C1071       C  0.20546953  0.62947844  0.39594336    -0.01300
C1072       C  0.20597965  0.62960993  0.35523779    -0.01300
C1073       C  0.18544507  0.61397962  0.33409371     0.08700
C1074       C  0.17269957  0.59108935  0.35471251    -0.01500
Br1075     Br  0.16491002  0.55516796  0.32925744     0.00000
Br1076     Br  0.16064966  0.55658772  0.42139380    -0.00100
Br1077     Br  0.23954335  0.64445653  0.33009560     0.00000
Br1078     Br  0.23923190  0.64219886  0.42238586     0.00000
C1079       C  0.20974482  0.62659269  0.14451861    -0.01100
C1080       C  0.18941276  0.61091007  0.16581098     0.08500
C1081       C  0.17732558  0.58759094  0.14573605    -0.01300
C1082       C  0.17511791  0.58843799  0.10522313    -0.01300
C1083       C  0.18646426  0.61199339  0.08443517     0.08700
C1084       C  0.20864883  0.62666212  0.10387596    -0.01500
Br1085     Br  0.24217250  0.63904086  0.07637343     0.00000
Br1086     Br  0.24340386  0.64100378  0.16943193    -0.00100
Br1087     Br  0.16385807  0.55378890  0.07915479     0.00000
Br1088     Br  0.17219346  0.55135003  0.17153868     0.00000
C1089       C  0.07977514  0.87248615  0.38982771    -0.01100
C1090       C  0.10155099  0.85838848  0.41006101     0.08500
C1091       C  0.11436612  0.83596507  0.38915245    -0.01300
C1092       C  0.11493998  0.83679038  0.34848120    -0.01300
C1093       C  0.10265078  0.86006428  0.32858524     0.08700
C1094       C  0.08048087  0.87365979  0.34917497    -0.01500
Br1095     Br  0.04677997  0.88636940  0.32312970     0.00000
Br1096     Br  0.04473659  0.88174474  0.41569763    -0.00100
Br1097     Br  0.12469201  0.80218922  0.32129321     0.00000
Br1098     Br  0.12271414  0.80030159  0.41444663     0.00000
C1099       C  0.12212700  0.88747019  0.09846302    -0.01100
C1100       C  0.11103078  0.86364150  0.07816909     0.08500
C1101       C  0.11040296  0.83767829  0.09923068    -0.01300
C1102       C  0.11055662  0.83794292  0.13987466    -0.01300
C1103       C  0.11157424  0.86411531  0.16034290     0.08700
C1104       C  0.12257668  0.88761124  0.13921846    -0.01500
Br1105     Br  0.14556573  0.91614168  0.16449544     0.00000
Br1106     Br  0.14358800  0.91658610  0.07171081    -0.00100
Br1107     Br  0.11595241  0.80211275  0.16628541     0.00000
Br1108     Br  0.11593836  0.80144335  0.07366727     0.00000
C1109       C  0.31425098  0.53503530  0.25712024    -0.01100
C1110       C  0.30660090  0.50624321  0.25291411     0.08500
C1111       C  0.27807094  0.99842326  0.24955200    -0.01300
C1112       C  0.25713908  0.51934457  0.25116367    -0.01300
C1113       C  0.26472080  0.54814634  0.25504177     0.08700
C1114       C  0.29327681  0.55607115  0.25791218    -0.01500
Br1115     Br  0.30332782  0.59570454  0.26173749     0.00000
Br1116     Br  0.35353112  0.54527833  0.26009241    -0.00100
Br1117     Br  0.21790938  0.50895664  0.24798191     0.00000
Br1118     Br  0.26792058  0.95907766  0.24212927     0.00000
C1119       C  0.27033100  0.99438713  0.49929853    -0.01100
C1120       C  0.29888702  0.50253290  0.49911267     0.08500
C1121       C  0.30642977  0.53153806  0.99872001    -0.01300
C1122       C  0.28536115  0.55237762  0.99721247    -0.01300
C1123       C  0.25685946  0.54416669  0.49755857     0.08700
C1124       C  0.24929150  0.51524980  0.49921243    -0.01500
Br1125     Br  0.21007555  0.50467605  0.50198714     0.00000
Br1126     Br  0.26040030  0.95462549  0.49953562    -0.00100
Br1127     Br  0.29502896  0.59221230  0.99491104     0.00000
Br1128     Br  0.34551484  0.54240504  0.00140172     0.00000
C1129       C  0.34394701  0.92529046  0.39414635    -0.01100
C1130       C  0.36930308  0.92293648  0.41547081     0.08500
C1131       C  0.39244884  0.91074766  0.39541155    -0.01300
C1132       C  0.39298335  0.91028058  0.35479726    -0.01300
C1133       C  0.37071911  0.92257503  0.33342390     0.08700
C1134       C  0.34468060  0.92565691  0.35350861    -0.01500
Br1135     Br  0.30890073  0.92470441  0.32675692     0.00000
Br1136     Br  0.30753883  0.92083467  0.41898502    -0.00100
Br1137     Br  0.42069937  0.88640028  0.32981173     0.00000
Br1138     Br  0.42083692  0.88913399  0.42246719     0.00000
C1139       C  0.37485205  0.95512179  0.10419409    -0.01100
C1140       C  0.37424591  0.92892982  0.08347643     0.08500
C1141       C  0.38435551  0.90480014  0.10385155    -0.01300
C1142       C  0.38517354  0.90482016  0.14443864    -0.01300
C1143       C  0.37620469  0.92899998  0.16546860     0.08700
C1144       C  0.37642265  0.95513979  0.14479212    -0.01500
Br1145     Br  0.38668333  0.99072612  0.16973505     0.00000
Br1146     Br  0.37992021  0.99138044  0.07828141    -0.00100
Br1147     Br  0.40441823  0.87398005  0.17015890     0.00000
Br1148     Br  0.40310917  0.87395666  0.07729011     0.00000
C1149       C  0.01381285  0.74616510  0.24097961    -0.01100
C1150       C  0.98558875  0.75411510  0.24672561     0.08500
C1151       C  0.97876425  0.78305508  0.25120551    -0.01300
C1152       C  0.99998316  0.80406191  0.24790392    -0.01300
C1153       C  0.02812959  0.79605707  0.24145238     0.08700
C1154       C  0.03505647  0.76708167  0.23869283    -0.01500
Br1155     Br  0.07390499  0.75629957  0.23323449     0.00000
Br1156     Br  0.52326490  0.70644022  0.23810143    -0.00100
Br1157     Br  0.99088796  0.84381266  0.25192866     0.00000
Br1158     Br  0.44049276  0.79355189  0.26248529     0.00000
C1159       C  0.01272155  0.74394848  0.99979860    -0.01100
C1160       C  0.98453764  0.75300063  0.50023908     0.08500
C1161       C  0.47832210  0.78221295  0.50150087    -0.01300
C1162       C  0.00034788  0.80239773  0.50125986    -0.01300
C1163       C  0.02849680  0.79330464  0.50098448     0.08700
C1164       C  0.03469948  0.76409845  0.00043429    -0.01500
Br1165     Br  0.07338528  0.75204856  0.00015794     0.00000
Br1166     Br  0.02091997  0.70390883  0.99808231    -0.00100
Br1167     Br  0.99244771  0.84250606  0.50005002     0.00000
Br1168     Br  0.43967766  0.79419660  0.50384763     0.00000
C1169       C  0.39605153  0.65844939  0.39231843    -0.01100
C1170       C  0.41826163  0.67180055  0.41308979     0.08500
C1171       C  0.44392519  0.67558418  0.39243365    -0.01300
C1172       C  0.44409477  0.67556164  0.35176405    -0.01300
C1173       C  0.41856163  0.67171959  0.33099253     0.08700
C1174       C  0.39616606  0.65847900  0.35170051    -0.01500
Br1175     Br  0.36871087  0.63468181  0.32563775     0.00000
Br1176     Br  0.36862462  0.63435025  0.41826845    -0.00100
Br1177     Br  0.48041380  0.67431423  0.32608946     0.00000
Br1178     Br  0.47992053  0.67400696  0.41833173     0.00000
C1179       C  0.40958839  0.70225295  0.10158299    -0.01100
C1180       C  0.41060297  0.67607102  0.08104581     0.08500
C1181       C  0.40238300  0.65156346  0.10217433    -0.01300
C1182       C  0.40301548  0.65180902  0.14280610    -0.01300
C1183       C  0.41246124  0.67641765  0.16301998     0.08700
C1184       C  0.41096457  0.70248662  0.14216571    -0.01500
Br1185     Br  0.40420531  0.73859788  0.16769505     0.00000
Br1186     Br  0.39942517  0.73749209  0.07608955    -0.00100
Br1187     Br  0.38481634  0.62057710  0.16974318     0.00000
Br1188     Br  0.38427093  0.61976696  0.07659077     0.00000
C1189       C  0.41671240  0.67474196  0.95748528     0.30700
C1190       C  0.41369893  0.67518615  0.53665705     0.30700
C1191       C  0.42714472  0.64794808  0.97818294    -0.05500
C1192       C  0.43329623  0.69877931  0.97769827    -0.06300
C1193       C  0.38731237  0.67968057  0.97509221    -0.06100
C1194       C  0.42628695  0.64826547  0.51816900    -0.05500
C1195       C  0.43274281  0.69815980  0.51783167    -0.06300
C1196       C  0.38551326  0.67853401  0.51526811    -0.06100
C1197       C  0.44326844  0.62620348  0.53035041    -0.31500
N1198       N  0.45340827  0.61235272  0.49908875     0.15000
C1199       C  0.44383890  0.62548545  0.96724824    -0.31500
H1200       H  0.44992284  0.62000990  0.93825512     0.16900
C1201       C  0.45207329  0.71813143  0.53023571    -0.30500
N1202       N  0.46224050  0.73233687  0.99934982     0.13700
C1203       C  0.45065290  0.72114921  0.96720086    -0.30500
C1204       C  0.36121990  0.69258736  0.52564141    -0.30800
N1205       N  0.34930135  0.70380726  0.49396533     0.14200
H1206       H  0.35470799  0.69751399  0.55464770     0.16800
C1207       C  0.36547116  0.69697192  0.96329825    -0.30800
H1208       H  0.36287923  0.70571918  0.93484497     0.16800
H1209       H  0.45572108  0.72792767  0.93834277     0.16800
H1210       H  0.44924879  0.62169178  0.55962387     0.16900
H1211       H  0.45870172  0.72182351  0.55947840     0.16800
C1212       C  0.41580124  0.67583395  0.70738330     0.30700
C1213       C  0.41735575  0.67470834  0.78659542     0.30700
C1214       C  0.42773068  0.64856375  0.72573142    -0.05500
C1215       C  0.43485398  0.69844263  0.72694290    -0.06300
C1216       C  0.38739551  0.67971150  0.72814826    -0.06100
C1217       C  0.42810314  0.64794228  0.76570025    -0.05500
C1218       C  0.43445831  0.69885094  0.76709440    -0.06300
C1219       C  0.38813805  0.67987282  0.76834355    -0.06100
C1220       C  0.44472128  0.62526432  0.77634540    -0.31500
N1221       N  0.45446826  0.61218164  0.74434098     0.15000
C1222       C  0.44468455  0.62642869  0.71330789    -0.31500
H1223       H  0.45088460  0.62214516  0.68398920     0.16900
C1224       C  0.45136422  0.72135908  0.77843831    -0.30500
N1225       N  0.46384602  0.73270935  0.74693479     0.13700
C1226       C  0.45456236  0.71847568  0.71552866    -0.30500
C1227       C  0.36527167  0.69608750  0.78006262    -0.30800
N1228       N  0.35031386  0.70422419  0.74891041     0.14200
H1229       H  0.36147468  0.70374138  0.80887692     0.16800
C1230       C  0.36374408  0.69460577  0.71731741    -0.30800
H1231       H  0.35811073  0.70033598  0.68832088     0.16800
H1232       H  0.46180258  0.72238859  0.68662626     0.16800
H1233       H  0.45061967  0.61962638  0.80528300     0.16900
H1234       H  0.45542885  0.72820793  0.80761890     0.16800
C1235       C  0.36979327  0.92619611  0.95982634     0.30700
C1236       C  0.37088627  0.92802605  0.53911337     0.30700
C1237       C  0.39814216  0.93423435  0.97808887    -0.05500
C1238       C  0.35060713  0.94863061  0.97924093    -0.06300
C1239       C  0.36169206  0.89855884  0.98084055    -0.06100
C1240       C  0.39885335  0.93448185  0.51815412    -0.05500
C1241       C  0.35022674  0.94857687  0.51946074    -0.06300
C1242       C  0.36100506  0.89974056  0.52088139    -0.06100
C1243       C  0.42245395  0.94984600  0.52852590    -0.31500
N1244       N  0.43578538  0.95905662  0.99644337     0.15000
C1245       C  0.42083974  0.95036152  0.96558130    -0.31500
H1246       H  0.42488963  0.95714480  0.93641112     0.16900
C1247       C  0.33005314  0.96780505  0.53085359    -0.30500
N1248       N  0.32025418  0.98119057  0.99929778     0.13700
C1249       C  0.33289950  0.97016608  0.96777707    -0.30500
C1250       C  0.34297372  0.87803979  0.53253977    -0.30800
N1251       N  0.33532745  0.86249666  0.00141325     0.14200
H1252       H  0.33515523  0.87452411  0.56134618     0.16800
C1253       C  0.34656817  0.87486160  0.96982247    -0.30800
H1254       H  0.34165642  0.86871087  0.94068603     0.16800
H1255       H  0.32888423  0.97694967  0.93868164     0.16800
H1256       H  0.42840531  0.95573655  0.55738107     0.16900
H1257       H  0.32318076  0.97209750  0.55989181     0.16800
C1258       C  0.37376648  0.92785105  0.70989017     0.30700
C1259       C  0.37263946  0.92577766  0.78907168     0.30700
C1260       C  0.40249124  0.93039619  0.73000710    -0.05500
C1261       C  0.35601190  0.95079257  0.73034441    -0.06300
C1262       C  0.36079558  0.90079540  0.72790218    -0.06100
C1263       C  0.40202461  0.93010266  0.77037560    -0.05500
C1264       C  0.35665339  0.95065278  0.77043728    -0.06300
C1265       C  0.36069001  0.89969261  0.76780319    -0.06100
C1266       C  0.42509057  0.94636433  0.78174086    -0.31500
N1267       N  0.43984824  0.95484560  0.75036435     0.15000
C1268       C  0.42616774  0.94543115  0.71894698    -0.31500
H1269       H  0.43150165  0.95163131  0.68993536     0.16900
C1270       C  0.34026963  0.97300931  0.78275116    -0.30500
N1271       N  0.32786673  0.98481233  0.75175264     0.13700
C1272       C  0.33664886  0.97104761  0.71982070    -0.30500
C1273       C  0.34502422  0.87615555  0.77839133    -0.30800
N1274       N  0.33548400  0.86307797  0.74630621     0.14200
H1275       H  0.33975641  0.86975122  0.80735607     0.16800
C1276       C  0.34466620  0.87799725  0.71530356    -0.30800
H1277       H  0.33876065  0.87350202  0.68597104     0.16800
H1278       H  0.32908164  0.97527156  0.69117132     0.16800
H1279       H  0.42900314  0.95403889  0.81050276     0.16900
H1280       H  0.33625978  0.97924896  0.81212184     0.16800
O1281       O  0.47833030  0.97520488  0.97006925    -0.77800
C1282       C  0.02402067  0.53011165  0.89164057     0.83300
O1283       O  0.07495173  0.97912134  0.51478503    -0.78900
O1284       O  0.06592563  0.58291531  0.97932943    -0.80400
O1285       O  0.46849982  0.56827047  0.52141059    -0.80200
O1286       O  0.46117580  0.99723842  0.52144697    -0.78800
Zn1287     Zn  0.01694947  0.99325801  0.96206773     1.55700
O1288       O  0.99414737  0.59014840  0.97654102    -0.80200
Cd1289     Cd  0.48939423  0.53017178  0.52869204     1.59700
Cd1290     Cd  0.05783878  0.51917478  0.52551585     1.59600
O1291       O  0.50162016  0.52893916  0.58384584    -0.80200
O1292       O  0.02304813  0.52595842  0.99508435    -1.90700
Cd1293     Cd  0.02771516  0.56268705  0.96666185     1.59900
O1294       O  0.04781449  0.52013837  0.58230242    -0.80200
O1295       O  0.02767923  0.55349077  0.90939209    -0.78800
C1296       C  0.06742835  0.95938935  0.99180411     0.83700
C1297       C  0.45943847  0.97806407  0.99581454     0.83400
O1298       O  0.01973213  0.00652678  0.90858845    -0.77800
C1299       C  0.47297891  0.58928460  0.49918401     0.84200
O1300       O  0.04630235  0.96229898  0.96970510    -0.77900
C1301       C  0.02495131  0.52458841  0.60033278     0.84300
C1302       C  0.08685419  0.57539141  0.99975759     0.84600
O1303       O  0.08702316  0.55181266  0.51789323    -0.80300
O1304       O  0.05072103  0.96393744  0.77147408    -0.77800
C1305       C  0.02458746  0.53002242  0.85023348     0.83300
O1306       O  0.46265427  0.99473091  0.72460716    -0.78900
O1307       O  0.99625029  0.59064909  0.76437298    -0.80400
O1308       O  0.08919713  0.55129140  0.72496971    -0.79000
O1309       O  0.07643096  0.98034565  0.72277996    -0.78800
Zn1310     Zn  0.02015532  0.99302602  0.77997070     1.55700
O1311       O  0.06898299  0.58132384  0.76605784    -0.80200
Cd1312     Cd  0.05903909  0.52017858  0.71490634     1.59700
Cd1313     Cd  0.48988878  0.52881534  0.71502277     1.59600
O1314       O  0.04863331  0.52215417  0.65867641    -0.80200
O1315       O  0.02451337  0.52588181  0.74677860    -1.90700
Cd1316     Cd  0.02930957  0.56259950  0.77528111     1.59900
O1317       O  0.50180123  0.52727717  0.65908777    -0.80200
O1318       O  0.02738824  0.55348566  0.83243991    -0.78800
C1319       C  0.46269483  0.97496981  0.74964744     0.83700
C1320       C  0.07062118  0.96107095  0.74721612     0.83400
O1321       O  0.02203383  0.00620969  0.83332655    -0.77800
C1322       C  0.09000440  0.57365093  0.74566888     0.84200
O1323       O  0.48269893  0.97251931  0.77357638    -0.77900
C1324       C  0.02520658  0.52468365  0.64162938     0.84300
C1325       C  0.47406938  0.58899241  0.74383832     0.84600
O1326       O  0.46863067  0.56709953  0.72344730    -0.80300
C1327       C  0.10482419  0.86124777  0.95431274     0.30700
C1328       C  0.10763386  0.86376574  0.53371060     0.30700
C1329       C  0.09887853  0.89076608  0.97287111    -0.05500
C1330       C  0.08461183  0.84172922  0.97657142    -0.06300
C1331       C  0.13372632  0.85415803  0.97254181    -0.06100
C1332       C  0.09937114  0.89165137  0.51311380    -0.05500
C1333       C  0.08538899  0.84334903  0.51647925    -0.06300
C1334       C  0.13479837  0.85544799  0.51252270    -0.06100
C1335       C  0.08791903  0.91742052  0.52390013    -0.31500
N1336       N  0.08230222  0.93284374  0.99201905     0.15000
C1337       C  0.08927396  0.91707673  0.96081909    -0.31500
H1338       H  0.08612429  0.92383582  0.93152007     0.16900
C1339       C  0.06356326  0.82638493  0.52986234    -0.30500
N1340       N  0.05093046  0.81376818  0.99939422     0.13700
C1341       C  0.06344335  0.82303238  0.96678459    -0.30500
C1342       C  0.16101932  0.84632762  0.52373265    -0.30800
N1343       N  0.17593087  0.83910507  0.99206899     0.14200
H1344       H  0.16796641  0.84312601  0.55292719     0.16800
C1345       C  0.15984428  0.84431337  0.96069530    -0.30800
H1346       H  0.16635884  0.83997809  0.93154069     0.16800
H1347       H  0.05726733  0.81686534  0.93810432     0.16800
H1348       H  0.08268531  0.92391843  0.55281788     0.16900
H1349       H  0.05739813  0.82322060  0.55945540     0.16800
C1350       C  0.10845509  0.86473953  0.70486672     0.30700
C1351       C  0.10601879  0.86324350  0.78435372     0.30700
C1352       C  0.10122665  0.89312906  0.72519803    -0.05500
C1353       C  0.08566082  0.84520531  0.72287917    -0.06300
C1354       C  0.13547216  0.85585289  0.72576601    -0.06100
C1355       C  0.10094413  0.89260948  0.76551415    -0.05500
C1356       C  0.08510390  0.84415008  0.76277370    -0.06300
C1357       C  0.13473722  0.85577615  0.76578372    -0.06100
C1358       C  0.09268916  0.91924908  0.77756113    -0.31500
N1359       N  0.08591722  0.93494440  0.74639723     0.15000
C1360       C  0.09067815  0.91922734  0.71444265    -0.31500
H1361       H  0.08516702  0.92566829  0.68565822     0.16900
C1362       C  0.06329858  0.82645659  0.77353947    -0.30500
N1363       N  0.05019113  0.81707572  0.74156713     0.13700
C1364       C  0.06323683  0.82860684  0.71043142    -0.30500
C1365       C  0.16132555  0.84766543  0.77771537    -0.30800
N1366       N  0.17702389  0.84094231  0.74638468     0.14200
H1367       H  0.16806700  0.84467606  0.80702193     0.16800
C1368       C  0.16156353  0.84621923  0.71460959    -0.30800
H1369       H  0.16837235  0.84203831  0.68550539     0.16800
H1370       H  0.05708020  0.82482153  0.68102786     0.16800
H1371       H  0.08992142  0.92621114  0.80689113     0.16900
H1372       H  0.05731499  0.82076549  0.80252663     0.16800
C1373       C  0.18282503  0.61462111  0.54021409     0.30700
C1374       C  0.18178350  0.61598296  0.96072995     0.30700
C1375       C  0.18795476  0.64409390  0.52123209    -0.05500
C1376       C  0.20360710  0.59558314  0.51917791    -0.06300
C1377       C  0.15426257  0.60656675  0.52112121    -0.06100
C1378       C  0.18718583  0.64479202  0.98101724    -0.05500
C1379       C  0.20316012  0.59615401  0.97954671    -0.06300
C1380       C  0.15372953  0.60773514  0.98082108    -0.06100
C1381       C  0.19267780  0.67251844  0.97010049    -0.31500
N1382       N  0.19881419  0.68800942  0.00179334     0.15000
C1383       C  0.19456913  0.67134475  0.53309837    -0.31500
H1384       H  0.19821542  0.67816886  0.56229138     0.16900
C1385       C  0.22316803  0.57714651  0.96692005    -0.30500
N1386       N  0.23545680  0.56536096  0.99803524     0.13700
C1387       C  0.22376166  0.57638995  0.53008258    -0.30500
C1388       C  0.12674860  0.60058001  0.96956651    -0.30800
N1389       N  0.11159926  0.59306787  0.00099891     0.14200
H1390       H  0.11932205  0.59861449  0.94039394     0.16800
C1391       C  0.12770329  0.59761912  0.53257160    -0.30800
H1392       H  0.12086996  0.59334105  0.56163469     0.16800
H1393       H  0.22940771  0.57062757  0.55907902     0.16800
H1394       H  0.19490084  0.68023566  0.94102452     0.16900
H1395       H  0.22829456  0.57207048  0.93745580     0.16800
C1396       C  0.18448403  0.61513965  0.78944066     0.30700
C1397       C  0.18679388  0.61353242  0.71004862     0.30700
C1398       C  0.18840336  0.64419412  0.76884873    -0.05500
C1399       C  0.20772918  0.59698118  0.77124585    -0.06300
C1400       C  0.15736671  0.60473921  0.76881964    -0.06100
C1401       C  0.18949593  0.64342513  0.72860786    -0.05500
C1402       C  0.20893143  0.59632776  0.73154016    -0.06300
C1403       C  0.15879031  0.60356661  0.72870923    -0.06100
C1404       C  0.19463055  0.67099296  0.71636914    -0.31500
N1405       N  0.19823415  0.68791842  0.74750788     0.15000
C1406       C  0.19298483  0.67211962  0.77937302    -0.31500
H1407       H  0.19494077  0.68004020  0.80836399     0.16900
C1408       C  0.23105975  0.57908405  0.72138843    -0.30500
N1409       N  0.24325452  0.56937224  0.75384934     0.13700
C1410       C  0.22917196  0.57995439  0.78452694    -0.30500
C1411       C  0.13273365  0.59449570  0.71601507    -0.30800
N1412       N  0.11574641  0.58983507  0.74671177     0.14200
H1413       H  0.12658895  0.59085470  0.68658140     0.16800
C1414       C  0.13005045  0.59714314  0.77891332    -0.30800
H1415       H  0.12161458  0.59553181  0.80769703     0.16800
H1416       H  0.23381028  0.57507837  0.81415106     0.16800
H1417       H  0.19838145  0.67775296  0.68715437     0.16900
H1418       H  0.23741664  0.57336653  0.69258395     0.16800
O1419       O  0.24431128  0.77136978  0.91034633    -0.77800
C1420       C  0.21638487  0.71295494  0.00129678     0.83300
O1421       O  0.22118460  0.83027673  0.51573701    -0.78900
O1422       O  0.27221165  0.75476225  0.58498444    -0.80400
O1423       O  0.32744451  0.74530780  0.97221954    -0.80200
O1424       O  0.29021904  0.78253511  0.90957750    -0.78800
Zn1425     Zn  0.23236932  0.76985533  0.96471447     1.55700
O1426       O  0.30646259  0.71993486  0.51816589    -0.80200
Cd1427     Cd  0.30080349  0.78018274  0.96600280     1.59700
Cd1428     Cd  0.25988815  0.81139865  0.52757281     1.59600
O1429       O  0.32192706  0.81763074  0.97934635    -0.80200
O1430       O  0.26534163  0.77610498  0.99645339    -1.90700
Cd1431     Cd  0.27005132  0.74228566  0.52974220     1.59900
O1432       O  0.29333655  0.84000099  0.52022016    -0.80200
O1433       O  0.23613770  0.71488969  0.52575166    -0.78800
C1434       C  0.20153201  0.82301894  0.99277915     0.83700
C1435       C  0.26703114  0.77749440  0.89277815     0.83400
O1436       O  0.21320280  0.73163978  0.97519371    -0.77800
C1437       C  0.32662475  0.72381062  0.49453401     0.84200
O1438       O  0.20347280  0.80093547  0.97175286    -0.77900
C1439       C  0.31606325  0.83889383  0.50059911     0.84300
C1440       C  0.26622433  0.77781965  0.60187800     0.84600
O1441       O  0.25969093  0.80059963  0.58448523    -0.80300
O1442       O  0.21207314  0.73264030  0.72295281    -0.77800
C1443       C  0.20233428  0.82442680  0.74676738     0.83300
O1444       O  0.29035557  0.77885936  0.65956364    -0.78900
O1445       O  0.29423410  0.84031446  0.76666968    -0.80400
O1446       O  0.26829403  0.75387326  0.83485012    -0.80200
O1447       O  0.23573179  0.71420252  0.77180788    -0.78800
Zn1448     Zn  0.23181931  0.77138251  0.71508765     1.55700
O1449       O  0.26417331  0.80131189  0.83433524    -0.80200
Cd1450     Cd  0.26905926  0.74183637  0.77932312     1.59700
Cd1451     Cd  0.30110333  0.77924899  0.71593760     1.59600
O1452       O  0.30657224  0.71991924  0.77128455    -0.80200
O1453       O  0.26542360  0.77616680  0.74641281    -1.90700
Cd1454     Cd  0.26147163  0.81178968  0.77751980     1.59900
O1455       O  0.32815859  0.74506268  0.72560543    -0.80200
O1456       O  0.22246152  0.83125453  0.76915495    -0.78800
C1457       C  0.26662323  0.77763646  0.64293635     0.83700
C1458       C  0.21572497  0.71298042  0.74766229     0.83400
O1459       O  0.20374856  0.80264569  0.72509717    -0.77800
C1460       C  0.26657221  0.77768540  0.85171869     0.84200
O1461       O  0.24330301  0.77505748  0.66062280    -0.77900
C1462       C  0.32733482  0.72396664  0.74866169     0.84300
C1463       C  0.31637268  0.83933089  0.74586163     0.84600
O1464       O  0.32212335  0.81773088  0.72518213    -0.80300
C1465       C  0.17157783  0.59151798  0.89538869    -0.01100
C1466       C  0.18387759  0.61449936  0.91620649     0.08500
C1467       C  0.20546960  0.62947835  0.89594337    -0.01300
C1468       C  0.20597970  0.62960984  0.85523779    -0.01300
C1469       C  0.18544512  0.61397950  0.83409371     0.08700
C1470       C  0.17269960  0.59108927  0.85471254    -0.01500
Br1471     Br  0.16490987  0.55516793  0.82925747     0.00000
Br1472     Br  0.16064970  0.55658769  0.92139384    -0.00100
Br1473     Br  0.23954339  0.64445652  0.83009562     0.00000
Br1474     Br  0.23923195  0.64219884  0.92238587     0.00000
C1475       C  0.20974481  0.62659267  0.64451861    -0.01100
C1476       C  0.18941278  0.61091000  0.66581098     0.08500
C1477       C  0.17732558  0.58759086  0.64573606    -0.01300
C1478       C  0.17511782  0.58843800  0.60522314    -0.01300
C1479       C  0.18646420  0.61199342  0.58443518     0.08700
C1480       C  0.20864879  0.62666214  0.60387596    -0.01500
Br1481     Br  0.24217250  0.63904086  0.57637345     0.00000
Br1482     Br  0.24340389  0.64100376  0.66943192    -0.00100
Br1483     Br  0.16385792  0.55378891  0.57915481     0.00000
Br1484     Br  0.17219333  0.55134990  0.67153867     0.00000
C1485       C  0.07977511  0.87248619  0.88982777    -0.01100
C1486       C  0.10155096  0.85838849  0.91006102     0.08500
C1487       C  0.11436607  0.83596508  0.88915242    -0.01300
C1488       C  0.11493985  0.83679037  0.84848116    -0.01300
C1489       C  0.10265067  0.86006431  0.82858525     0.08700
C1490       C  0.08048079  0.87365987  0.84917501    -0.01500
Br1491     Br  0.04677984  0.88636941  0.82312975     0.00000
Br1492     Br  0.04473662  0.88174475  0.91569787    -0.00100
Br1493     Br  0.12469185  0.80218923  0.82129302     0.00000
Br1494     Br  0.12271399  0.80030159  0.91444662     0.00000
C1495       C  0.12212703  0.88747020  0.59846304    -0.01100
C1496       C  0.11103076  0.86364156  0.57816911     0.08500
C1497       C  0.11040296  0.83767836  0.59923069    -0.01300
C1498       C  0.11055665  0.83794295  0.63987465    -0.01300
C1499       C  0.11157425  0.86411533  0.66034292     0.08700
C1500       C  0.12257672  0.88761124  0.63921848    -0.01500
Br1501     Br  0.14556579  0.91614167  0.66449546     0.00000
Br1502     Br  0.14358805  0.91658609  0.57171082    -0.00100
Br1503     Br  0.11595246  0.80211274  0.66628524     0.00000
Br1504     Br  0.11593843  0.80144349  0.57366724     0.00000
C1505       C  0.31425095  0.53503525  0.75712026    -0.01100
C1506       C  0.30660088  0.50624316  0.75291408     0.08500
C1507       C  0.27807094  0.99842320  0.74955236    -0.01300
C1508       C  0.25713906  0.51934450  0.75116362    -0.01300
C1509       C  0.26472077  0.54814627  0.75504179     0.08700
C1510       C  0.29327677  0.55607107  0.75791222    -0.01500
Br1511     Br  0.30332785  0.59570438  0.76173779     0.00000
Br1512     Br  0.35353113  0.54527832  0.76009243    -0.00100
Br1513     Br  0.21790937  0.50895661  0.74798193     0.00000
Br1514     Br  0.26792060  0.95907761  0.74212985     0.00000
C1515       C  0.27033100  0.99438698  0.99929862    -0.01100
C1516       C  0.29888703  0.50253278  0.99911270     0.08500
C1517       C  0.30642970  0.53153818  0.49871999    -0.01300
C1518       C  0.28536106  0.55237774  0.49721240    -0.01300
C1519       C  0.25685951  0.54416662  0.99755870     0.08700
C1520       C  0.24929152  0.51524971  0.99921250    -0.01500
Br1521     Br  0.21007553  0.50467604  0.00198712     0.00000
Br1522     Br  0.26040018  0.95462532  0.99953564    -0.00100
Br1523     Br  0.29502873  0.59221248  0.49491102     0.00000
Br1524     Br  0.34551473  0.54240508  0.50140174     0.00000
C1525       C  0.34394706  0.92529025  0.89414635    -0.01100
C1526       C  0.36930314  0.92293631  0.91547081     0.08500
C1527       C  0.39244889  0.91074746  0.89541155    -0.01300
C1528       C  0.39298340  0.91028038  0.85479726    -0.01300
C1529       C  0.37071917  0.92257486  0.83342389     0.08700
C1530       C  0.34468066  0.92565672  0.85350862    -0.01500
Br1531     Br  0.30890078  0.92470439  0.82675694     0.00000
Br1532     Br  0.30753888  0.92083446  0.91898504    -0.00100
Br1533     Br  0.42069942  0.88640008  0.82981173     0.00000
Br1534     Br  0.42083697  0.88913379  0.92246722     0.00000
C1535       C  0.37485212  0.95512189  0.60419409    -0.01100
C1536       C  0.37424595  0.92892992  0.58347642     0.08500
C1537       C  0.38435549  0.90480020  0.60385153    -0.01300
C1538       C  0.38517346  0.90482016  0.64443861    -0.01300
C1539       C  0.37620463  0.92899998  0.66546857     0.08700
C1540       C  0.37642268  0.95513983  0.64479212    -0.01500
Br1541     Br  0.38668338  0.99072612  0.66973509     0.00000
Br1542     Br  0.37992026  0.99138061  0.57828145    -0.00100
Br1543     Br  0.40441825  0.87398008  0.67015888     0.00000
Br1544     Br  0.40310903  0.87395664  0.57729010     0.00000
C1545       C  0.01381272  0.74616517  0.74097930    -0.01100
C1546       C  0.98558865  0.75411516  0.74672565     0.08500
C1547       C  0.97876420  0.78305513  0.75120603    -0.01300
C1548       C  0.99998311  0.80406195  0.74790448    -0.01300
C1549       C  0.02812949  0.79605713  0.74145246     0.08700
C1550       C  0.03505634  0.76708173  0.73869254    -0.01500
Br1551     Br  0.07390482  0.75629959  0.73323365     0.00000
Br1552     Br  0.52326472  0.70644028  0.73810059    -0.00100
Br1553     Br  0.99088799  0.84381267  0.75192983     0.00000
Br1554     Br  0.44049281  0.79355207  0.76248617     0.00000
C1555       C  0.01272149  0.74394858  0.49979882    -0.01100
C1556       C  0.98453769  0.75300051  0.00023889     0.08500
C1557       C  0.47832213  0.78221283  0.00150078    -0.01300
C1558       C  0.00034793  0.80239757  0.00125988    -0.01300
C1559       C  0.02849688  0.79330450  0.00098448     0.08700
C1560       C  0.03469939  0.76409858  0.50043439    -0.01500
Br1561     Br  0.07338517  0.75204874  0.50015823     0.00000
Br1562     Br  0.02091991  0.70390889  0.49808259    -0.00100
Br1563     Br  0.99244776  0.84250590  0.00005031     0.00000
Br1564     Br  0.43967764  0.79419641  0.00384733     0.00000
C1565       C  0.39605153  0.65844937  0.89231836    -0.01100
C1566       C  0.41826163  0.67180047  0.91308976     0.08500
C1567       C  0.44392516  0.67558406  0.89243358    -0.01300
C1568       C  0.44409473  0.67556161  0.85176398    -0.01300
C1569       C  0.41856159  0.67171962  0.83099250     0.08700
C1570       C  0.39616605  0.65847899  0.85170044    -0.01500
Br1571     Br  0.36871092  0.63468180  0.82563755     0.00000
Br1572     Br  0.36862465  0.63435023  0.91826825    -0.00100
Br1573     Br  0.48041369  0.67431423  0.82608923     0.00000
Br1574     Br  0.47992047  0.67400674  0.91833155     0.00000
C1575       C  0.40958824  0.70225298  0.60158301    -0.01100
C1576       C  0.41060288  0.67607105  0.58104582     0.08500
C1577       C  0.40238290  0.65156350  0.60217432    -0.01300
C1578       C  0.40301535  0.65180905  0.64280609    -0.01300
C1579       C  0.41246111  0.67641769  0.66301999     0.08700
C1580       C  0.41096441  0.70248668  0.64216574    -0.01500
Br1581     Br  0.40420517  0.73859802  0.66769504     0.00000
Br1582     Br  0.39942503  0.73749209  0.57608956    -0.00100
Br1583     Br  0.38481619  0.62057710  0.66974301     0.00000
Br1584     Br  0.38427097  0.61976694  0.57659074     0.00000
C1585       C  0.91671240  0.17474200  0.45748528     0.30700
C1586       C  0.91369894  0.17518612  0.03665705     0.30700
C1587       C  0.92714474  0.14794812  0.47818291    -0.05500
C1588       C  0.93329624  0.19877934  0.47769831    -0.06300
C1589       C  0.88731238  0.17968061  0.47509220    -0.06100
C1590       C  0.92628692  0.14826540  0.01816903    -0.05500
C1591       C  0.93274282  0.19815976  0.01783165    -0.06300
C1592       C  0.88551325  0.17853398  0.01526812    -0.06100
C1593       C  0.94326842  0.12620342  0.03035044    -0.31500
N1594       N  0.95340830  0.11235272  0.99908876     0.15000
C1595       C  0.94383896  0.12548552  0.46724822    -0.31500
H1596       H  0.94992297  0.12000999  0.43825508     0.16900
C1597       C  0.95207330  0.21813140  0.03023568    -0.30500
N1598       N  0.96224050  0.23233691  0.49934991     0.13700
C1599       C  0.95065289  0.22114926  0.46720091    -0.30500
C1600       C  0.86121992  0.19258740  0.02564141    -0.30800
N1601       N  0.84930140  0.20380732  0.99396531     0.14200
H1602       H  0.85470801  0.19751405  0.05464764     0.16800
C1603       C  0.86547114  0.19697194  0.46329826    -0.30800
H1604       H  0.86287920  0.20571918  0.43484499     0.16800
H1605       H  0.95572103  0.22792777  0.43834288     0.16800
H1606       H  0.94924874  0.12169169  0.05962389     0.16900
H1607       H  0.95870171  0.22182350  0.05947833     0.16800
C1608       C  0.91580130  0.17583396  0.20738328     0.30700
C1609       C  0.91735578  0.17470838  0.28659542     0.30700
C1610       C  0.92773068  0.14856376  0.22573142    -0.05500
C1611       C  0.93485409  0.19844260  0.22694288    -0.06300
C1612       C  0.88739557  0.17971155  0.22814826    -0.06100
C1613       C  0.92810313  0.14794229  0.26570025    -0.05500
C1614       C  0.93445838  0.19885095  0.26709438    -0.06300
C1615       C  0.88813809  0.17987287  0.26834354    -0.06100
C1616       C  0.94472128  0.12526434  0.27634539    -0.31500
N1617       N  0.95446829  0.11218166  0.24434098     0.15000
C1618       C  0.94468457  0.12642872  0.21330788    -0.31500
H1619       H  0.95088464  0.12214524  0.18398922     0.16900
C1620       C  0.95136426  0.22135911  0.27843827    -0.30500
N1621       N  0.96384609  0.23270933  0.24693475     0.13700
C1622       C  0.95456251  0.21847560  0.21552863    -0.30500
C1623       C  0.86527168  0.19608750  0.28006261    -0.30800
N1624       N  0.85031388  0.20422417  0.24891040     0.14200
H1625       H  0.86147467  0.20374138  0.30887690     0.16800
C1626       C  0.86374413  0.19460580  0.21731738    -0.30800
H1627       H  0.85811080  0.20033602  0.18832089     0.16800
H1628       H  0.96180275  0.22238848  0.18662626     0.16800
H1629       H  0.95061969  0.11962643  0.30528300     0.16900
H1630       H  0.95542881  0.22820805  0.30761884     0.16800
C1631       C  0.86979323  0.42619618  0.45982632     0.30700
C1632       C  0.87088628  0.42802597  0.03911333     0.30700
C1633       C  0.89814214  0.43423440  0.47808884    -0.05500
C1634       C  0.85060710  0.44863068  0.47924090    -0.06300
C1635       C  0.86169203  0.39855892  0.48084054    -0.06100
C1636       C  0.89885335  0.43448186  0.01815409    -0.05500
C1637       C  0.85022671  0.44857673  0.01946069    -0.06300
C1638       C  0.86100515  0.39974046  0.02088134    -0.06100
C1639       C  0.92245393  0.44984605  0.02852588    -0.31500
N1640       N  0.93578536  0.45905664  0.49644335     0.15000
C1641       C  0.92083973  0.45036154  0.46558128    -0.31500
H1642       H  0.92488965  0.45714477  0.43641107     0.16900
C1643       C  0.83005311  0.46780489  0.03085356    -0.30500
N1644       N  0.82025418  0.48119070  0.49929777     0.13700
C1645       C  0.83289946  0.47016616  0.46777701    -0.30500
C1646       C  0.84297382  0.37803970  0.03253976    -0.30800
N1647       N  0.83532740  0.36249676  0.50141326     0.14200
H1648       H  0.83515535  0.37452403  0.06134617     0.16800
C1649       C  0.84656810  0.37486170  0.46982246    -0.30800
H1650       H  0.84165635  0.36871097  0.44068605     0.16800
H1651       H  0.82888418  0.47694970  0.43868169     0.16800
H1652       H  0.92840529  0.45573655  0.05738107     0.16900
H1653       H  0.82318076  0.47209735  0.05989179     0.16800
C1654       C  0.87376649  0.42785107  0.20989016     0.30700
C1655       C  0.87263944  0.42577773  0.28907168     0.30700
C1656       C  0.90249123  0.43039623  0.23000710    -0.05500
C1657       C  0.85601190  0.45079259  0.23034438    -0.06300
C1658       C  0.86079557  0.40079544  0.22790219    -0.06100
C1659       C  0.90202459  0.43010271  0.27037559    -0.05500
C1660       C  0.85665337  0.45065282  0.27043725    -0.06300
C1661       C  0.86068999  0.39969266  0.26780321    -0.06100
C1662       C  0.92509056  0.44636436  0.28174085    -0.31500
N1663       N  0.93984822  0.45484564  0.25036433     0.15000
C1664       C  0.92616772  0.44543119  0.21894697    -0.31500
H1665       H  0.93150162  0.45163134  0.18993533     0.16900
C1666       C  0.84026961  0.47300934  0.28275112    -0.30500
N1667       N  0.82786676  0.48481236  0.25175257     0.13700
C1668       C  0.83664886  0.47104761  0.21982065    -0.30500
C1669       C  0.84502420  0.37615559  0.27839136    -0.30800
N1670       N  0.83548403  0.36307801  0.24630621     0.14200
H1671       H  0.83975638  0.36975124  0.30735609     0.16800
C1672       C  0.84466619  0.37799730  0.21530357    -0.30800
H1673       H  0.83876066  0.37350206  0.18597102     0.16800
H1674       H  0.82908165  0.47527156  0.19117125     0.16800
H1675       H  0.92900315  0.45403888  0.31050273     0.16900
H1676       H  0.83625975  0.47924901  0.31212179     0.16800
O1677       O  0.97833026  0.47520488  0.47006927    -0.77800
C1678       C  0.52402065  0.03011160  0.39164056     0.83300
O1679       O  0.57495172  0.47912137  0.01478495    -0.78900
O1680       O  0.56592563  0.08291531  0.47932940    -0.80400
O1681       O  0.96849986  0.06827047  0.02141056    -0.80200
O1682       O  0.96117594  0.49723839  0.02144695    -0.78800
Zn1683     Zn  0.51694944  0.49325793  0.46206773     1.55700
O1684       O  0.49414735  0.09014842  0.47654104    -0.80200
Cd1685     Cd  0.98939433  0.03017180  0.02869203     1.59700
Cd1686     Cd  0.55783878  0.01917467  0.02551587     1.59600
O1687       O  0.00162020  0.02893922  0.08384583    -0.80200
O1688       O  0.52304809  0.02595843  0.49508436    -1.90700
Cd1689     Cd  0.52771513  0.06268707  0.46666184     1.59900
O1690       O  0.54781445  0.02013823  0.08230243    -0.80200
O1691       O  0.52767918  0.05349073  0.40939208    -0.78800
C1692       C  0.56742837  0.45938937  0.49180423     0.83700
C1693       C  0.95943842  0.47806410  0.49581453     0.83400
O1694       O  0.51973204  0.50652673  0.40858842    -0.77800
C1695       C  0.97297896  0.08928461  0.99918401     0.84200
O1696       O  0.54630240  0.46229900  0.46970516    -0.77900
C1697       C  0.52495131  0.02458838  0.10033280     0.84300
C1698       C  0.58685418  0.07539142  0.49975759     0.84600
O1699       O  0.58702316  0.05181261  0.01789324    -0.80300
O1700       O  0.55072097  0.46393738  0.27147403    -0.77800
C1701       C  0.52458749  0.03002240  0.35023347     0.83300
O1702       O  0.96265431  0.49473089  0.22460711    -0.78900
O1703       O  0.49625032  0.09064910  0.26437303    -0.80400
O1704       O  0.58919714  0.05129139  0.22496975    -0.79000
O1705       O  0.57643096  0.48034562  0.22277999    -0.78800
Zn1706     Zn  0.52015532  0.49302602  0.27997068     1.55700
O1707       O  0.56898300  0.08132378  0.26605795    -0.80200
Cd1708     Cd  0.55903907  0.02017859  0.21490633     1.59700
Cd1709     Cd  0.98988879  0.02881534  0.21502273     1.59600
O1710       O  0.54863334  0.02215423  0.15867641    -0.80200
O1711       O  0.52451335  0.02588182  0.24677854    -1.90700
Cd1712     Cd  0.52930957  0.06259943  0.27528111     1.59900
O1713       O  0.00180126  0.02727705  0.15908776    -0.80200
O1714       O  0.52738819  0.05348563  0.33243992    -0.78800
C1715       C  0.96269484  0.47496982  0.24964742     0.83700
C1716       C  0.57062115  0.46107091  0.24721612     0.83400
O1717       O  0.52203387  0.50620967  0.33332653    -0.77800
C1718       C  0.59000442  0.07365090  0.24566898     0.84200
O1719       O  0.98269892  0.47251933  0.27357642    -0.77900
C1720       C  0.52520658  0.02468362  0.14162939     0.84300
C1721       C  0.97406944  0.08899245  0.24383829     0.84600
O1722       O  0.96863077  0.06709959  0.22344723    -0.80300
C1723       C  0.60482423  0.36124780  0.45431276     0.30700
C1724       C  0.60763382  0.36376576  0.03371062     0.30700
C1725       C  0.59887858  0.39076611  0.47287112    -0.05500
C1726       C  0.58461184  0.34172925  0.47657142    -0.06300
C1727       C  0.63372638  0.35415805  0.47254182    -0.06100
C1728       C  0.59937109  0.39165138  0.01311381    -0.05500
C1729       C  0.58538895  0.34334904  0.01647927    -0.06300
C1730       C  0.63479834  0.35544802  0.01252270    -0.06100
C1731       C  0.58791902  0.41742056  0.02390010    -0.31500
N1732       N  0.58230229  0.43284378  0.49201909     0.15000
C1733       C  0.58927403  0.41707678  0.46081912    -0.31500
H1734       H  0.58612438  0.42383588  0.43152009     0.16900
C1735       C  0.56356322  0.32638492  0.02986234    -0.30500
N1736       N  0.55093045  0.31376823  0.49939423     0.13700
C1737       C  0.56344334  0.32303243  0.46678459    -0.30500
C1738       C  0.66101929  0.34632764  0.02373266    -0.30800
N1739       N  0.67593092  0.33910508  0.49206899     0.14200
H1740       H  0.66796636  0.34312605  0.05292720     0.16800
C1741       C  0.65984433  0.34431341  0.46069534    -0.30800
H1742       H  0.66635893  0.33997814  0.43154059     0.16800
H1743       H  0.55726731  0.31686540  0.43810432     0.16800
H1744       H  0.58268529  0.42391848  0.05281781     0.16900
H1745       H  0.55739807  0.32322059  0.05945539     0.16800
C1746       C  0.60845514  0.36473951  0.20486674     0.30700
C1747       C  0.60601885  0.36324347  0.28435374     0.30700
C1748       C  0.60122662  0.39312902  0.22519808    -0.05500
C1749       C  0.58566094  0.34520523  0.22287918    -0.06300
C1750       C  0.63547224  0.35585293  0.22576602    -0.06100
C1751       C  0.60094411  0.39260944  0.26551420    -0.05500
C1752       C  0.58510402  0.34414999  0.26277370    -0.06300
C1753       C  0.63473730  0.35577619  0.26578373    -0.06100
C1754       C  0.59268917  0.41924906  0.27756114    -0.31500
N1755       N  0.58591722  0.43494437  0.24639724     0.15000
C1756       C  0.59067811  0.41922728  0.21444269    -0.31500
H1757       H  0.58516696  0.42566822  0.18565823     0.16900
C1758       C  0.56329865  0.32645655  0.27353947    -0.30500
N1759       N  0.55019117  0.31707573  0.24156711     0.13700
C1760       C  0.56323689  0.32860684  0.21043142    -0.30500
C1761       C  0.66132563  0.34766544  0.27771537    -0.30800
N1762       N  0.67702395  0.34094234  0.24638466     0.14200
H1763       H  0.66806707  0.34467604  0.30702188     0.16800
C1764       C  0.66156361  0.34621925  0.21460958    -0.30800
H1765       H  0.66837241  0.34203828  0.18550539     0.16800
H1766       H  0.55708020  0.32482161  0.18102785     0.16800
H1767       H  0.58992145  0.42621118  0.30689116     0.16900
H1768       H  0.55731504  0.32076550  0.30252659     0.16800
C1769       C  0.68282508  0.11462105  0.04021411     0.30700
C1770       C  0.68178346  0.11598302  0.46072994     0.30700
C1771       C  0.68795479  0.14409386  0.02123212    -0.05500
C1772       C  0.70360714  0.09558309  0.01917789    -0.06300
C1773       C  0.65426261  0.10656669  0.02112124    -0.06100
C1774       C  0.68718580  0.14479206  0.48101724    -0.05500
C1775       C  0.70316007  0.09615406  0.47954669    -0.06300
C1776       C  0.65372949  0.10773520  0.48082109    -0.06100
C1777       C  0.69267773  0.17251849  0.47010052    -0.31500
N1778       N  0.69881407  0.18800948  0.50179333     0.15000
C1779       C  0.69456911  0.17134472  0.03309843    -0.31500
H1780       H  0.69821543  0.17816882  0.06229139     0.16900
C1781       C  0.72316799  0.07714658  0.46692004    -0.30500
N1782       N  0.73545675  0.06536104  0.49803522     0.13700
C1783       C  0.72376170  0.07638989  0.03008257    -0.30500
C1784       C  0.62674858  0.10058004  0.46956652    -0.30800
N1785       N  0.61159925  0.09306784  0.50099891     0.14200
H1786       H  0.61932203  0.09861455  0.44039395     0.16800
C1787       C  0.62770332  0.09761908  0.03257161    -0.30800
H1788       H  0.62086997  0.09334100  0.06163472     0.16800
H1789       H  0.72940775  0.07062752  0.05907901     0.16800
H1790       H  0.69490082  0.18023574  0.44102446     0.16900
H1791       H  0.72829456  0.07207057  0.43745577     0.16800
C1792       C  0.68448401  0.11513973  0.28944065     0.30700
C1793       C  0.68679385  0.11353251  0.21004861     0.30700
C1794       C  0.68840331  0.14419421  0.26884872    -0.05500
C1795       C  0.70772918  0.09698131  0.27124583    -0.06300
C1796       C  0.65736671  0.10473926  0.26881965    -0.06100
C1797       C  0.68949588  0.14342522  0.22860785    -0.05500
C1798       C  0.70893143  0.09632789  0.23154015    -0.06300
C1799       C  0.65879028  0.10356666  0.22870923    -0.06100
C1800       C  0.69463045  0.17099305  0.21636912    -0.31500
N1801       N  0.69823399  0.18791853  0.24750785     0.15000
C1802       C  0.69298475  0.17211972  0.27937300    -0.31500
H1803       H  0.69494074  0.18004030  0.30836395     0.16900
C1804       C  0.73105972  0.07908413  0.22138842    -0.30500
N1805       N  0.74325448  0.06937231  0.25384931     0.13700
C1806       C  0.72917193  0.07995447  0.28452693    -0.30500
C1807       C  0.63273362  0.09449572  0.21601513    -0.30800
N1808       N  0.61574641  0.08983504  0.24671184     0.14200
H1809       H  0.62658887  0.09085470  0.18658143     0.16800
C1810       C  0.63005046  0.09714316  0.27891338    -0.30800
H1811       H  0.62161462  0.09553184  0.30769707     0.16800
H1812       H  0.73381019  0.07507843  0.31415097     0.16800
H1813       H  0.69838137  0.17775305  0.18715434     0.16900
H1814       H  0.73741656  0.07336657  0.19258393     0.16800
O1815       O  0.74431125  0.27136981  0.41034631    -0.77800
C1816       C  0.71638483  0.21295493  0.50129674     0.83300
O1817       O  0.72118465  0.33027678  0.01573696    -0.78900
O1818       O  0.77221162  0.25476227  0.08498442    -0.80400
O1819       O  0.82744452  0.24530781  0.47221954    -0.80200
O1820       O  0.79021902  0.28253513  0.40957748    -0.78800
Zn1821     Zn  0.73236933  0.26985534  0.46471448     1.55700
O1822       O  0.80646265  0.21993493  0.01816595    -0.80200
Cd1823     Cd  0.80080359  0.28018277  0.46600278     1.59700
Cd1824     Cd  0.75988825  0.31139868  0.02757279     1.59600
O1825       O  0.82192710  0.31763081  0.47934633    -0.80200
O1826       O  0.76534170  0.27610502  0.49645335    -1.90700
Cd1827     Cd  0.77005131  0.24228565  0.02974219     1.59900
O1828       O  0.79333659  0.34000105  0.02022013    -0.80200
O1829       O  0.73613772  0.21488961  0.02575167    -0.78800
C1830       C  0.70153204  0.32301898  0.49277920     0.83700
C1831       C  0.76703111  0.27749443  0.39277814     0.83400
O1832       O  0.71320273  0.23163982  0.47519373    -0.77800
C1833       C  0.82662476  0.22381063  0.99453395     0.84200
O1834       O  0.70347283  0.30093545  0.47175299    -0.77900
C1835       C  0.81606329  0.33889381  0.00059909     0.84300
C1836       C  0.76622430  0.27781968  0.10187798     0.84600
O1837       O  0.75969092  0.30059967  0.08448521    -0.80300
O1838       O  0.71207303  0.23264039  0.22295275    -0.77800
C1839       C  0.70233436  0.32442683  0.24676737     0.83300
O1840       O  0.79035554  0.27885939  0.15956362    -0.78900
O1841       O  0.79423416  0.34031447  0.26666961    -0.80400
O1842       O  0.76829400  0.25387329  0.33485010    -0.80200
O1843       O  0.73573175  0.21420254  0.27180771    -0.78800
Zn1844     Zn  0.73181931  0.27138254  0.21508762     1.55700
O1845       O  0.76417331  0.30131192  0.33433523    -0.80200
Cd1846     Cd  0.76905924  0.24183638  0.27932307     1.59700
Cd1847     Cd  0.80110336  0.27924901  0.21593759     1.59600
O1848       O  0.80657226  0.21991925  0.27128448    -0.80200
O1849       O  0.76542361  0.27616682  0.24641279    -1.90700
Cd1850     Cd  0.76147172  0.31178971  0.27751978     1.59900
O1851       O  0.82815868  0.24506270  0.22560543    -0.80200
O1852       O  0.72246159  0.33125455  0.26915497    -0.78800
C1853       C  0.76662320  0.27763649  0.14293633     0.83700
C1854       C  0.71572487  0.21298050  0.24766221     0.83400
O1855       O  0.70374864  0.30264574  0.22509713    -0.77800
C1856       C  0.76657219  0.27768543  0.35171868     0.84200
O1857       O  0.74330298  0.27505751  0.16062278    -0.77900
C1858       C  0.82733486  0.22396666  0.24866165     0.84300
C1859       C  0.81637275  0.33933090  0.24586161     0.84600
O1860       O  0.82212346  0.31773088  0.22518214    -0.80300
C1861       C  0.67157778  0.09151801  0.39538872    -0.01100
C1862       C  0.68387752  0.11449942  0.41620648     0.08500
C1863       C  0.70546955  0.12947838  0.39594336    -0.01300
C1864       C  0.70597967  0.12960987  0.35523779    -0.01300
C1865       C  0.68544508  0.11397955  0.33409371     0.08700
C1866       C  0.67269958  0.09108930  0.35471255    -0.01500
Br1867     Br  0.66491003  0.05516795  0.32925746     0.00000
Br1868     Br  0.66064968  0.05658773  0.42139401    -0.00100
Br1869     Br  0.73954336  0.14445655  0.33009560     0.00000
Br1870     Br  0.73923191  0.14219887  0.42238586     0.00000
C1871       C  0.70974482  0.12659269  0.14451861    -0.01100
C1872       C  0.68941276  0.11091004  0.16581098     0.08500
C1873       C  0.67732560  0.08759086  0.14573610    -0.01300
C1874       C  0.67511794  0.08843790  0.10522315    -0.01300
C1875       C  0.68646430  0.11199333  0.08443518     0.08700
C1876       C  0.70864884  0.12666211  0.10387596    -0.01500
Br1877     Br  0.74217251  0.13904090  0.07637343     0.00000
Br1878     Br  0.74340387  0.14100381  0.16943193    -0.00100
Br1879     Br  0.66385811  0.05378877  0.07915483     0.00000
Br1880     Br  0.67219330  0.05134994  0.17153887     0.00000
C1881       C  0.57977513  0.37248619  0.38982777    -0.01100
C1882       C  0.60155100  0.35838853  0.41006103     0.08500
C1883       C  0.61436613  0.33596512  0.38915247    -0.01300
C1884       C  0.61493994  0.33679040  0.34848123    -0.01300
C1885       C  0.60265069  0.36006428  0.32858527     0.08700
C1886       C  0.58048078  0.37365980  0.34917500    -0.01500
Br1887     Br  0.54677985  0.38636942  0.32312975     0.00000
Br1888     Br  0.54473663  0.38174477  0.41569785    -0.00100
Br1889     Br  0.62469185  0.30218923  0.32129320     0.00000
Br1890     Br  0.62271397  0.30030161  0.41444665     0.00000
C1891       C  0.62212700  0.38747022  0.09846307    -0.01100
C1892       C  0.61103074  0.36364155  0.07816912     0.08500
C1893       C  0.61040295  0.33767833  0.09923069    -0.01300
C1894       C  0.61055664  0.33794294  0.13987467    -0.01300
C1895       C  0.61157426  0.36411532  0.16034293     0.08700
C1896       C  0.62257671  0.38761126  0.13921852    -0.01500
Br1897     Br  0.64556575  0.41614169  0.16449564     0.00000
Br1898     Br  0.64358802  0.41658612  0.07171083    -0.00100
Br1899     Br  0.61595244  0.30211278  0.16628541     0.00000
Br1900     Br  0.61593838  0.30144339  0.07366726     0.00000
C1901       C  0.81425096  0.03503538  0.25712025    -0.01100
C1902       C  0.80660088  0.00624328  0.25291405     0.08500
C1903       C  0.77807098  0.49842323  0.24955230    -0.01300
C1904       C  0.75713906  0.01934460  0.25116360    -0.01300
C1905       C  0.76472075  0.04814637  0.25504177     0.08700
C1906       C  0.79327677  0.05607121  0.25791218    -0.01500
Br1907     Br  0.80332782  0.09570457  0.26173749     0.00000
Br1908     Br  0.85353110  0.04527853  0.26009241    -0.00100
Br1909     Br  0.71790938  0.00895665  0.24798191     0.00000
Br1910     Br  0.76792059  0.45907764  0.24212983     0.00000
C1911       C  0.77033099  0.49438711  0.49929853    -0.01100
C1912       C  0.79888701  0.00253294  0.49911274     0.08500
C1913       C  0.80642972  0.03153807  0.99872003    -0.01300
C1914       C  0.78536110  0.05237763  0.99721243    -0.01300
C1915       C  0.75685946  0.04416672  0.49755868     0.08700
C1916       C  0.74929147  0.01524982  0.49921227    -0.01500
Br1917     Br  0.71007545  0.00467609  0.50198657     0.00000
Br1918     Br  0.76040031  0.45462549  0.49953562    -0.00100
Br1919     Br  0.79502880  0.09221233  0.99491104     0.00000
Br1920     Br  0.84551473  0.04240509  0.00140200     0.00000
C1921       C  0.84394701  0.42529028  0.39414633    -0.01100
C1922       C  0.86930310  0.42293639  0.41547078     0.08500
C1923       C  0.89244888  0.41074764  0.39541151    -0.01300
C1924       C  0.89298342  0.41028057  0.35479723    -0.01300
C1925       C  0.87071915  0.42257500  0.33342388     0.08700
C1926       C  0.84468063  0.42565678  0.35350860    -0.01500
Br1927     Br  0.80890075  0.42470442  0.32675692     0.00000
Br1928     Br  0.80753884  0.42083449  0.41898502    -0.00100
Br1929     Br  0.92069937  0.38640014  0.32981173     0.00000
Br1930     Br  0.92083677  0.38913380  0.42246720     0.00000
C1931       C  0.87485207  0.45512181  0.10419405    -0.01100
C1932       C  0.87424592  0.42892983  0.08347639     0.08500
C1933       C  0.88435553  0.40480015  0.10385151    -0.01300
C1934       C  0.88517357  0.40482017  0.14443859    -0.01300
C1935       C  0.87620470  0.42899999  0.16546855     0.08700
C1936       C  0.87642267  0.45513980  0.14479207    -0.01500
Br1937     Br  0.88668335  0.49072613  0.16973503     0.00000
Br1938     Br  0.87992023  0.49138046  0.07828140    -0.00100
Br1939     Br  0.90441825  0.37398009  0.17015888     0.00000
Br1940     Br  0.90310920  0.37395667  0.07729008     0.00000
C1941       C  0.51381276  0.24616520  0.24097930    -0.01100
C1942       C  0.48558869  0.25411520  0.24672556     0.08500
C1943       C  0.47876421  0.28305516  0.25120582    -0.01300
C1944       C  0.49998314  0.30406198  0.24790437    -0.01300
C1945       C  0.52812952  0.29605714  0.24145244     0.08700
C1946       C  0.53505639  0.26708176  0.23869254    -0.01500
Br1947     Br  0.57390493  0.25629963  0.23323392     0.00000
Br1948     Br  0.02326474  0.20644029  0.23810085    -0.00100
Br1949     Br  0.49088799  0.34381271  0.25192953     0.00000
Br1950     Br  0.94049292  0.29355195  0.26248616     0.00000
C1951       C  0.51272148  0.24394855  0.99979875    -0.01100
C1952       C  0.48453768  0.25300056  0.50023897     0.08500
C1953       C  0.97832212  0.28221286  0.50150075    -0.01300
C1954       C  0.50034790  0.30239763  0.50125987    -0.01300
C1955       C  0.52849685  0.29330456  0.50098449     0.08700
C1956       C  0.53469938  0.26409855  0.00043437    -0.01500
Br1957     Br  0.57338513  0.25204860  0.00015822     0.00000
Br1958     Br  0.52091997  0.20390888  0.99808233    -0.00100
Br1959     Br  0.49244758  0.34250592  0.50005002     0.00000
Br1960     Br  0.93967767  0.29419644  0.50384763     0.00000
C1961       C  0.89605152  0.15844941  0.39231833    -0.01100
C1962       C  0.91826161  0.17180051  0.41308975     0.08500
C1963       C  0.94392516  0.17558411  0.39243364    -0.01300
C1964       C  0.94409476  0.17556168  0.35176404    -0.01300
C1965       C  0.91856161  0.17171968  0.33099250     0.08700
C1966       C  0.89616605  0.15847902  0.35170041    -0.01500
Br1967     Br  0.86871096  0.13468168  0.32563754     0.00000
Br1968     Br  0.86862463  0.13435027  0.41826823    -0.00100
Br1969     Br  0.98041382  0.17431446  0.32608946     0.00000
Br1970     Br  0.97992044  0.17400696  0.41833175     0.00000
C1971       C  0.90958837  0.20225297  0.10158299    -0.01100
C1972       C  0.91060293  0.17607102  0.08104581     0.08500
C1973       C  0.90238287  0.15156349  0.10217432    -0.01300
C1974       C  0.90301536  0.15180906  0.14280610    -0.01300
C1975       C  0.91246118  0.17641769  0.16301997     0.08700
C1976       C  0.91096447  0.20248665  0.14216571    -0.01500
Br1977     Br  0.90420514  0.23859790  0.16769506     0.00000
Br1978     Br  0.89942520  0.23749212  0.07608955    -0.00100
Br1979     Br  0.88481634  0.12057712  0.16974320     0.00000
Br1980     Br  0.88427097  0.11976683  0.07659077     0.00000
C1981       C  0.91671240  0.17474197  0.95748529     0.30700
C1982       C  0.91369894  0.17518613  0.53665705     0.30700
C1983       C  0.92714476  0.14794810  0.97818295    -0.05500
C1984       C  0.93329620  0.19877935  0.97769830    -0.06300
C1985       C  0.88731236  0.17968054  0.97509221    -0.06100
C1986       C  0.92628689  0.14826540  0.51816900    -0.05500
C1987       C  0.93274286  0.19815974  0.51783166    -0.06300
C1988       C  0.88551328  0.17853405  0.51526812    -0.06100
C1989       C  0.94326832  0.12620338  0.53035041    -0.31500
N1990       N  0.95340820  0.11235266  0.49908873     0.15000
C1991       C  0.94383897  0.12548550  0.96724825    -0.31500
H1992       H  0.94992290  0.12000994  0.93825512     0.16900
C1993       C  0.95207332  0.21813142  0.53023569    -0.30500
N1994       N  0.96224048  0.23233689  0.99934989     0.13700
C1995       C  0.95065289  0.22114924  0.96720090    -0.30500
C1996       C  0.86121992  0.19258739  0.52564141    -0.30800
N1997       N  0.84930137  0.20380729  0.49396534     0.14200
H1998       H  0.85470802  0.19751402  0.55464771     0.16800
C1999       C  0.86547117  0.19697192  0.96329825    -0.30800
H2000       H  0.86287928  0.20571918  0.93484497     0.16800
H2001       H  0.95572108  0.22792771  0.93834286     0.16800
H2002       H  0.94924863  0.12169165  0.55962385     0.16900
H2003       H  0.95870172  0.22182355  0.55947837     0.16800
C2004       C  0.91580131  0.17583391  0.70738330     0.30700
C2005       C  0.91735578  0.17470831  0.78659543     0.30700
C2006       C  0.92773070  0.14856370  0.72573145    -0.05500
C2007       C  0.93485404  0.19844258  0.72694290    -0.06300
C2008       C  0.88739557  0.17971151  0.72814827    -0.06100
C2009       C  0.92810316  0.14794223  0.76570028    -0.05500
C2010       C  0.93445835  0.19885090  0.76709440    -0.06300
C2011       C  0.88813809  0.17987282  0.76834356    -0.06100
C2012       C  0.94472127  0.12526423  0.77634541    -0.31500
N2013       N  0.95446824  0.11218156  0.74434098     0.15000
C2014       C  0.94468452  0.12642862  0.71330790    -0.31500
H2015       H  0.95088456  0.12214510  0.68398923     0.16900
C2016       C  0.95136427  0.22135902  0.77843831    -0.30500
N2017       N  0.96384609  0.23270928  0.74693479     0.13700
C2018       C  0.95456249  0.21847558  0.71552866    -0.30500
C2019       C  0.86527171  0.19608751  0.78006261    -0.30800
N2020       N  0.85031391  0.20422419  0.74891041     0.14200
H2021       H  0.86147470  0.20374138  0.80887692     0.16800
C2022       C  0.86374416  0.19460581  0.71731739    -0.30800
H2023       H  0.85811083  0.20033602  0.68832090     0.16800
H2024       H  0.96180276  0.22238840  0.68662629     0.16800
H2025       H  0.95061971  0.11962628  0.80528299     0.16900
H2026       H  0.95542892  0.22820786  0.80761889     0.16800
C2027       C  0.86979324  0.42619614  0.95982632     0.30700
C2028       C  0.87088629  0.42802604  0.53911331     0.30700
C2029       C  0.89814212  0.43423440  0.97808886    -0.05500
C2030       C  0.85060710  0.44863063  0.97924091    -0.06300
C2031       C  0.86169207  0.39855886  0.98084053    -0.06100
C2032       C  0.89885337  0.43448186  0.51815408    -0.05500
C2033       C  0.85022674  0.44857682  0.51946066    -0.06300
C2034       C  0.86100512  0.39974053  0.52088135    -0.06100
C2035       C  0.92245396  0.44984603  0.52852589    -0.31500
N2036       N  0.93578535  0.45905666  0.99644335     0.15000
C2037       C  0.92083971  0.45036154  0.96558126    -0.31500
H2038       H  0.92488963  0.45714471  0.93641112     0.16900
C2039       C  0.83005316  0.46780501  0.53085351    -0.30500
N2040       N  0.82025417  0.48119060  0.99929778     0.13700
C2041       C  0.83289948  0.47016610  0.96777706    -0.30500
C2042       C  0.84297375  0.37803978  0.53253975    -0.30800
N2043       N  0.83532747  0.36249668  0.00141324     0.14200
H2044       H  0.83515527  0.37452409  0.56134620     0.16800
C2045       C  0.84656817  0.37486163  0.96982246    -0.30800
H2046       H  0.84165639  0.36871093  0.94068604     0.16800
H2047       H  0.82888421  0.47694966  0.93868164     0.16800
H2048       H  0.92840531  0.45573656  0.55738106     0.16900
H2049       H  0.82318084  0.47209749  0.55989177     0.16800
C2050       C  0.87376651  0.42785108  0.70989012     0.30700
C2051       C  0.87263948  0.42577769  0.78907164     0.30700
C2052       C  0.90249127  0.43039623  0.73000707    -0.05500
C2053       C  0.85601193  0.45079259  0.73034437    -0.06300
C2054       C  0.86079560  0.40079543  0.72790215    -0.06100
C2055       C  0.90202463  0.43010269  0.77037557    -0.05500
C2056       C  0.85665341  0.45065280  0.77043722    -0.06300
C2057       C  0.86069004  0.39969265  0.76780315    -0.06100
C2058       C  0.92509059  0.44636435  0.78174086    -0.31500
N2059       N  0.93984826  0.45484562  0.75036435     0.15000
C2060       C  0.92616777  0.44543118  0.71894697    -0.31500
H2061       H  0.93150169  0.45163135  0.68993535     0.16900
C2062       C  0.84026966  0.47300933  0.78275109    -0.30500
N2063       N  0.82786677  0.48481235  0.75175258     0.13700
C2064       C  0.83664889  0.47104763  0.71982061    -0.30500
C2065       C  0.84502425  0.37615558  0.77839132    -0.30800
N2066       N  0.83548403  0.36307800  0.74630621     0.14200
H2067       H  0.83975645  0.36975126  0.80735607     0.16800
C2068       C  0.84466620  0.37799728  0.71530354    -0.30800
H2069       H  0.83876064  0.37350207  0.68597105     0.16800
H2070       H  0.82908170  0.47527157  0.69117133     0.16800
H2071       H  0.92900316  0.45403891  0.81050275     0.16900
H2072       H  0.83625981  0.47924897  0.81212177     0.16800
O2073       O  0.97833025  0.47520492  0.97006914    -0.77800
C2074       C  0.52402069  0.03011159  0.89164057     0.83300
O2075       O  0.57495175  0.47912134  0.51478520    -0.78900
O2076       O  0.56592565  0.08291531  0.97932939    -0.80400
O2077       O  0.96849974  0.06827042  0.52141055    -0.80200
O2078       O  0.96117585  0.49723845  0.52144697    -0.78800
Zn2079     Zn  0.51694947  0.49325803  0.96206770     1.55700
O2080       O  0.49414742  0.09014847  0.97654109    -0.80200
Cd2081     Cd  0.98939421  0.03017179  0.52869203     1.59700
Cd2082     Cd  0.55783878  0.01917478  0.52551585     1.59600
O2083       O  0.00162017  0.02893920  0.58384583    -0.80200
O2084       O  0.52304815  0.02595840  0.99508434    -1.90700
Cd2085     Cd  0.52771518  0.06268708  0.96666185     1.59900
O2086       O  0.54781443  0.02013827  0.58230239    -0.80200
O2087       O  0.52767924  0.05349073  0.90939210    -0.78800
C2088       C  0.56742833  0.45938937  0.99180404     0.83700
C2089       C  0.95943845  0.47806408  0.99581446     0.83400
O2090       O  0.51973208  0.50652682  0.90858845    -0.77800
C2091       C  0.97297884  0.08928457  0.49918400     0.84200
O2092       O  0.54630236  0.46229899  0.96970497    -0.77900
C2093       C  0.52495128  0.02458838  0.60033278     0.84300
C2094       C  0.58685417  0.07539139  0.99975760     0.84600
O2095       O  0.58702319  0.05181265  0.51789324    -0.80300
O2096       O  0.55072105  0.46393747  0.77147408    -0.77800
C2097       C  0.52458749  0.03002239  0.85023348     0.83300
O2098       O  0.96265428  0.49473092  0.72460715    -0.78900
O2099       O  0.49625018  0.09064893  0.76437308    -0.80400
O2100       O  0.58919717  0.05129138  0.72496973    -0.79000
O2101       O  0.57643098  0.48034566  0.72277996    -0.78800
Zn2102     Zn  0.52015536  0.49302605  0.77997071     1.55700
O2103       O  0.56898295  0.08132378  0.76605784    -0.80200
Cd2104     Cd  0.55903911  0.02017859  0.71490633     1.59700
Cd2105     Cd  0.98988880  0.02881532  0.71502275     1.59600
O2106       O  0.54863334  0.02215423  0.65867639    -0.80200
O2107       O  0.52451337  0.02588177  0.74677859    -1.90700
Cd2108     Cd  0.52930949  0.06259940  0.77528112     1.59900
O2109       O  0.00180125  0.02727705  0.65908776    -0.80200
O2110       O  0.52738824  0.05348562  0.83243993    -0.78800
C2111       C  0.96269485  0.47496983  0.74964744     0.83700
C2112       C  0.57062122  0.46107098  0.74721613     0.83400
O2113       O  0.52203395  0.50620972  0.83332656    -0.77800
C2114       C  0.59000440  0.07365091  0.74566892     0.84200
O2115       O  0.98269896  0.47251933  0.77357637    -0.77900
C2116       C  0.52520659  0.02468362  0.64162937     0.84300
C2117       C  0.97406936  0.08899233  0.74383828     0.84600
O2118       O  0.96863068  0.06709947  0.72344722    -0.80300
C2119       C  0.60482417  0.36124777  0.95431275     0.30700
C2120       C  0.60763387  0.36376575  0.53371061     0.30700
C2121       C  0.59887848  0.39076606  0.97287112    -0.05500
C2122       C  0.58461183  0.34172921  0.97657143    -0.06300
C2123       C  0.63372632  0.35415808  0.97254182    -0.06100
C2124       C  0.59937117  0.39165139  0.51311382    -0.05500
C2125       C  0.58538898  0.34334906  0.51647926    -0.06300
C2126       C  0.63479838  0.35544796  0.51252271    -0.06100
C2127       C  0.58791906  0.41742053  0.52390015    -0.31500
N2128       N  0.58230223  0.43284377  0.99201900     0.15000
C2129       C  0.58927393  0.41707671  0.96081907    -0.31500
H2130       H  0.58612430  0.42383577  0.93152005     0.16900
C2131       C  0.56356328  0.32638491  0.52986235    -0.30500
N2132       N  0.55093039  0.31376826  0.99939422     0.13700
C2133       C  0.56344332  0.32303242  0.96678458    -0.30500
C2134       C  0.66101932  0.34632755  0.52373267    -0.30800
N2135       N  0.67593086  0.33910508  0.99206900     0.14200
H2136       H  0.66796639  0.34312589  0.55292721     0.16800
C2137       C  0.65984427  0.34431340  0.96069531    -0.30800
H2138       H  0.66635883  0.33997813  0.93154069     0.16800
H2139       H  0.55726730  0.31686540  0.93810433     0.16800
H2140       H  0.58268532  0.42391843  0.55281788     0.16900
H2141       H  0.55739814  0.32322057  0.55945540     0.16800
C2142       C  0.60845511  0.36473953  0.70486673     0.30700
C2143       C  0.60601880  0.36324347  0.78435372     0.30700
C2144       C  0.60122660  0.39312904  0.72519807    -0.05500
C2145       C  0.58566088  0.34520524  0.72287918    -0.06300
C2146       C  0.63547219  0.35585292  0.72576602    -0.06100
C2147       C  0.60094406  0.39260945  0.76551419    -0.05500
C2148       C  0.58510396  0.34415000  0.76277370    -0.06300
C2149       C  0.63473725  0.35577619  0.76578373    -0.06100
C2150       C  0.59268916  0.41924908  0.77756113    -0.31500
N2151       N  0.58591726  0.43494442  0.74639729     0.15000
C2152       C  0.59067818  0.41922735  0.71444269    -0.31500
H2153       H  0.58516709  0.42566832  0.68565828     0.16900
C2154       C  0.56329859  0.32645656  0.77353947    -0.30500
N2155       N  0.55019115  0.31707570  0.74156713     0.13700
C2156       C  0.56323684  0.32860682  0.71043142    -0.30500
C2157       C  0.66132558  0.34766546  0.77771537    -0.30800
N2158       N  0.67702391  0.34094235  0.74638468     0.14200
H2159       H  0.66806702  0.34467608  0.80702194     0.16800
C2160       C  0.66156356  0.34621926  0.71460960    -0.30800
H2161       H  0.66837237  0.34203832  0.68550539     0.16800
H2162       H  0.55708017  0.32482155  0.68102787     0.16800
H2163       H  0.58992145  0.42621119  0.80689126     0.16900
H2164       H  0.55731497  0.32076551  0.80252663     0.16800
C2165       C  0.68282503  0.11462108  0.54021410     0.30700
C2166       C  0.68178348  0.11598297  0.96072995     0.30700
C2167       C  0.68795477  0.14409388  0.52123213    -0.05500
C2168       C  0.70360707  0.09558310  0.51917791    -0.06300
C2169       C  0.65426258  0.10656673  0.52112122    -0.06100
C2170       C  0.68718580  0.14479203  0.98101724    -0.05500
C2171       C  0.70316013  0.09615404  0.97954669    -0.06300
C2172       C  0.65372953  0.10773513  0.98082110    -0.06100
C2173       C  0.69267765  0.17251846  0.97010047    -0.31500
N2174       N  0.69881400  0.18800948  0.00179327     0.15000
C2175       C  0.69456915  0.17134471  0.53309847    -0.31500
H2176       H  0.69821545  0.17816880  0.56229145     0.16900
C2177       C  0.72316804  0.07714655  0.96692002    -0.30500
N2178       N  0.73545680  0.06536096  0.99803517     0.13700
C2179       C  0.72376163  0.07638995  0.53008259    -0.30500
C2180       C  0.62674862  0.10057994  0.96956652    -0.30800
N2181       N  0.61159928  0.09306780  0.00099892     0.14200
H2182       H  0.61932209  0.09861438  0.94039395     0.16800
C2183       C  0.62770330  0.09761910  0.53257160    -0.30800
H2184       H  0.62086995  0.09334106  0.56163470     0.16800
H2185       H  0.72940770  0.07062759  0.55907907     0.16800
H2186       H  0.69490066  0.18023568  0.94102446     0.16900
H2187       H  0.72829454  0.07207053  0.93745575     0.16800
C2188       C  0.68448401  0.11513968  0.78944065     0.30700
C2189       C  0.68679387  0.11353246  0.71004862     0.30700
C2190       C  0.68840337  0.14419415  0.76884873    -0.05500
C2191       C  0.70772915  0.09698121  0.77124586    -0.06300
C2192       C  0.65736670  0.10473924  0.76881962    -0.06100
C2193       C  0.68949594  0.14342516  0.72860785    -0.05500
C2194       C  0.70893143  0.09632779  0.73154017    -0.06300
C2195       C  0.65879029  0.10356665  0.72870921    -0.06100
C2196       C  0.69463056  0.17099298  0.71636913    -0.31500
N2197       N  0.69823416  0.18791845  0.74750787     0.15000
C2198       C  0.69298484  0.17211965  0.77937301    -0.31500
H2199       H  0.69494079  0.18004022  0.80836397     0.16900
C2200       C  0.73105978  0.07908409  0.72138851    -0.30500
N2201       N  0.74325451  0.06937227  0.75384940     0.13700
C2202       C  0.72917190  0.07995439  0.78452703    -0.30500
C2203       C  0.63273362  0.09449574  0.71601509    -0.30800
N2204       N  0.61574639  0.08983507  0.74671179     0.14200
H2205       H  0.62658890  0.09085474  0.68658138     0.16800
C2206       C  0.63005046  0.09714315  0.77891333    -0.30800
H2207       H  0.62161461  0.09553182  0.80769704     0.16800
H2208       H  0.73381015  0.07507839  0.81415101     0.16800
H2209       H  0.69838147  0.17775298  0.68715436     0.16900
H2210       H  0.73741672  0.07336654  0.69258401     0.16800
O2211       O  0.74431125  0.27136978  0.91034628    -0.77800
C2212       C  0.71638481  0.21295491  0.00129667     0.83300
O2213       O  0.72118470  0.33027682  0.51573696    -0.78900
O2214       O  0.77221167  0.25476228  0.58498444    -0.80400
O2215       O  0.82744440  0.24530771  0.97221935    -0.80200
O2216       O  0.79021900  0.28253515  0.90957750    -0.78800
Zn2217     Zn  0.73236933  0.26985535  0.96471445     1.55700
O2218       O  0.80646262  0.21993489  0.51816590    -0.80200
Cd2219     Cd  0.80080347  0.28018267  0.96600278     1.59700
Cd2220     Cd  0.75988821  0.31139867  0.52757281     1.59600
O2221       O  0.82192707  0.31763073  0.97934636    -0.80200
O2222       O  0.76534163  0.27610500  0.99645339    -1.90700
Cd2223     Cd  0.77005135  0.24228566  0.52974220     1.59900
O2224       O  0.79333657  0.34000102  0.52022017    -0.80200
O2225       O  0.73613776  0.21488964  0.52575172    -0.78800
C2226       C  0.70153200  0.32301897  0.99277915     0.83700
C2227       C  0.76703111  0.27749443  0.89277813     0.83400
O2228       O  0.71320273  0.23163982  0.97519365    -0.77800
C2229       C  0.82662478  0.22381065  0.49453401     0.84200
O2230       O  0.70347282  0.30093550  0.97175285    -0.77900
C2231       C  0.81606328  0.33889385  0.50059911     0.84300
C2232       C  0.76622435  0.27781968  0.60187800     0.84600
O2233       O  0.75969095  0.30059966  0.58448523    -0.80300
O2234       O  0.71207328  0.23264030  0.72295282    -0.77800
C2235       C  0.70233430  0.32442683  0.74676738     0.83300
O2236       O  0.79035560  0.27885939  0.65956364    -0.78900
O2237       O  0.79423413  0.34031449  0.76666968    -0.80400
O2238       O  0.76829405  0.25387329  0.83485009    -0.80200
O2239       O  0.73573186  0.21420246  0.77180792    -0.78800
Zn2240     Zn  0.73181936  0.27138255  0.71508765     1.55700
O2241       O  0.76417333  0.30131192  0.83433520    -0.80200
Cd2242     Cd  0.76905929  0.24183637  0.77932310     1.59700
Cd2243     Cd  0.80110336  0.27924901  0.71593760     1.59600
O2244       O  0.80657227  0.21991923  0.77128455    -0.80200
O2245       O  0.76542362  0.27616683  0.74641280    -1.90700
Cd2246     Cd  0.76147166  0.31178971  0.77751979     1.59900
O2247       O  0.82815861  0.24506267  0.72560542    -0.80200
O2248       O  0.72246155  0.33125456  0.76915494    -0.78800
C2249       C  0.76662325  0.27763649  0.64293635     0.83700
C2250       C  0.71572506  0.21298040  0.74766229     0.83400
O2251       O  0.70374859  0.30264571  0.72509717    -0.77800
C2252       C  0.76657222  0.27768543  0.85171866     0.84200
O2253       O  0.74330304  0.27505751  0.66062280    -0.77900
C2254       C  0.82733484  0.22396663  0.74866166     0.84300
C2255       C  0.81637271  0.33933092  0.74586163     0.84600
O2256       O  0.82212338  0.31773091  0.72518213    -0.80300
C2257       C  0.67157779  0.09151793  0.89538871    -0.01100
C2258       C  0.68387752  0.11449937  0.91620650     0.08500
C2259       C  0.70546954  0.12947836  0.89594337    -0.01300
C2260       C  0.70597970  0.12960980  0.85523780    -0.01300
C2261       C  0.68544508  0.11397951  0.83409372     0.08700
C2262       C  0.67269957  0.09108927  0.85471255    -0.01500
Br2263     Br  0.66490989  0.05516795  0.82925746     0.00000
Br2264     Br  0.66064955  0.05658758  0.92139381    -0.00100
Br2265     Br  0.73954339  0.14445653  0.83009563     0.00000
Br2266     Br  0.73923192  0.14219887  0.92238587     0.00000
C2267       C  0.70974480  0.12659267  0.64451863    -0.01100
C2268       C  0.68941273  0.11091004  0.66581099     0.08500
C2269       C  0.67732548  0.08759092  0.64573609    -0.01300
C2270       C  0.67511780  0.08843801  0.60522316    -0.01300
C2271       C  0.68646422  0.11199339  0.58443518     0.08700
C2272       C  0.70864880  0.12666212  0.60387597    -0.01500
Br2273     Br  0.74217251  0.13904087  0.57637346     0.00000
Br2274     Br  0.74340389  0.14100378  0.66943192    -0.00100
Br2275     Br  0.66385794  0.05378891  0.57915482     0.00000
Br2276     Br  0.67219334  0.05134993  0.67153868     0.00000
C2277       C  0.57977509  0.37248612  0.88982772    -0.01100
C2278       C  0.60155095  0.35838847  0.91006101     0.08500
C2279       C  0.61436604  0.33596505  0.88915243    -0.01300
C2280       C  0.61493987  0.33679034  0.84848117    -0.01300
C2281       C  0.60265067  0.36006426  0.82858524     0.08700
C2282       C  0.58048077  0.37365976  0.84917497    -0.01500
Br2283     Br  0.54677986  0.38636943  0.82312973     0.00000
Br2284     Br  0.54473663  0.38174477  0.91569767    -0.00100
Br2285     Br  0.62469188  0.30218924  0.82129302     0.00000
Br2286     Br  0.62271402  0.30030160  0.91444664     0.00000
C2287       C  0.62212705  0.38747021  0.59846305    -0.01100
C2288       C  0.61103079  0.36364154  0.57816911     0.08500
C2289       C  0.61040300  0.33767832  0.59923070    -0.01300
C2290       C  0.61055668  0.33794294  0.63987467    -0.01300
C2291       C  0.61157427  0.36411533  0.66034292     0.08700
C2292       C  0.62257674  0.38761125  0.63921849    -0.01500
Br2293     Br  0.64556581  0.41614170  0.66449546     0.00000
Br2294     Br  0.64358808  0.41658612  0.57171083    -0.00100
Br2295     Br  0.61595248  0.30211278  0.66628543     0.00000
Br2296     Br  0.61593844  0.30144338  0.57366728     0.00000
C2297       C  0.81425096  0.03503527  0.75712027    -0.01100
C2298       C  0.80660086  0.00624318  0.75291423     0.08500
C2299       C  0.77807097  0.49842321  0.74955229    -0.01300
C2300       C  0.75713905  0.01934456  0.75116391    -0.01300
C2301       C  0.76472077  0.04814632  0.75504192     0.08700
C2302       C  0.79327679  0.05607111  0.75791220    -0.01500
Br2303     Br  0.80332788  0.09570442  0.76173750     0.00000
Br2304     Br  0.85353114  0.04527834  0.76009215    -0.00100
Br2305     Br  0.71790936  0.00895664  0.74798249     0.00000
Br2306     Br  0.76792063  0.45907764  0.74212957     0.00000
C2307       C  0.77033098  0.49438700  0.99929861    -0.01100
C2308       C  0.79888702  0.00253278  0.99911270     0.08500
C2309       C  0.80642971  0.03153822  0.49872024    -0.01300
C2310       C  0.78536107  0.05237778  0.49721271    -0.01300
C2311       C  0.75685950  0.04416661  0.99755855     0.08700
C2312       C  0.74929152  0.01524971  0.99921226    -0.01500
Br2313     Br  0.71007554  0.00467606  0.00198683     0.00000
Br2314     Br  0.76040019  0.45462535  0.99953564    -0.00100
Br2315     Br  0.79502875  0.09221252  0.49491132     0.00000
Br2316     Br  0.84551475  0.04240512  0.50140203     0.00000
C2317       C  0.84394707  0.42529029  0.89414630    -0.01100
C2318       C  0.86930312  0.42293635  0.91547078     0.08500
C2319       C  0.89244887  0.41074752  0.89541153    -0.01300
C2320       C  0.89298340  0.41028042  0.85479724    -0.01300
C2321       C  0.87071918  0.42257489  0.83342386     0.08700
C2322       C  0.84468067  0.42565675  0.85350857    -0.01500
Br2323     Br  0.80890079  0.42470442  0.82675691     0.00000
Br2324     Br  0.80753888  0.42083449  0.91898485    -0.00100
Br2325     Br  0.92069944  0.38640012  0.82981173     0.00000
Br2326     Br  0.92083684  0.38913379  0.92246724     0.00000
C2327       C  0.87485214  0.45512189  0.60419401    -0.01100
C2328       C  0.87424596  0.42892991  0.58347635     0.08500
C2329       C  0.88435551  0.40480020  0.60385148    -0.01300
C2330       C  0.88517349  0.40482017  0.64443856    -0.01300
C2331       C  0.87620466  0.42900000  0.66546850     0.08700
C2332       C  0.87642271  0.45513984  0.64479204    -0.01500
Br2333     Br  0.88668341  0.49072613  0.66973504     0.00000
Br2334     Br  0.87992028  0.49138062  0.57828143    -0.00100
Br2335     Br  0.90441828  0.37398011  0.67015888     0.00000
Br2336     Br  0.90310907  0.37395666  0.57729009     0.00000
C2337       C  0.51381279  0.24616513  0.74097958    -0.01100
C2338       C  0.48558870  0.25411513  0.74672561     0.08500
C2339       C  0.47876422  0.28305511  0.75120560    -0.01300
C2340       C  0.49998314  0.30406192  0.74790411    -0.01300
C2341       C  0.52812954  0.29605708  0.74145245     0.08700
C2342       C  0.53505643  0.26708169  0.73869284    -0.01500
Br2343     Br  0.57390500  0.25629961  0.73323451     0.00000
Br2344     Br  0.02326479  0.20644026  0.73810116    -0.00100
Br2345     Br  0.49088803  0.34381269  0.75192898     0.00000
Br2346     Br  0.94049282  0.29355193  0.76248561     0.00000
C2347       C  0.51272151  0.24394853  0.49979874    -0.01100
C2348       C  0.48453765  0.25300058  0.00023897     0.08500
C2349       C  0.97832206  0.28221289  0.00150078    -0.01300
C2350       C  0.50034784  0.30239770  0.00125987    -0.01300
C2351       C  0.52849678  0.29330461  0.00098447     0.08700
C2352       C  0.53469943  0.26409851  0.50043439    -0.01500
Br2353     Br  0.57338519  0.25204858  0.50015824     0.00000
Br2354     Br  0.52091994  0.20390886  0.49808231    -0.00100
Br2355     Br  0.49244761  0.34250606  0.00005031     0.00000
Br2356     Br  0.93967761  0.29419644  0.00384734     0.00000
C2357       C  0.89605158  0.15844930  0.89231835    -0.01100
C2358       C  0.91826164  0.17180045  0.91308977     0.08500
C2359       C  0.94392517  0.17558411  0.89243361    -0.01300
C2360       C  0.94409473  0.17556164  0.85176402    -0.01300
C2361       C  0.91856160  0.17171962  0.83099250     0.08700
C2362       C  0.89616608  0.15847895  0.85170043    -0.01500
Br2363     Br  0.86871098  0.13468166  0.82563755     0.00000
Br2364     Br  0.86862466  0.13435024  0.91826825    -0.00100
Br2365     Br  0.98041372  0.17431425  0.82608943     0.00000
Br2366     Br  0.97992049  0.17400697  0.91833157     0.00000
C2367       C  0.90958838  0.20225298  0.60158300    -0.01100
C2368       C  0.91060294  0.17607105  0.58104581     0.08500
C2369       C  0.90238292  0.15156352  0.60217431    -0.01300
C2370       C  0.90301541  0.15180905  0.64280608    -0.01300
C2371       C  0.91246123  0.17641766  0.66301998     0.08700
C2372       C  0.91096453  0.20248664  0.64216574    -0.01500
Br2373     Br  0.90420520  0.23859789  0.66769507     0.00000
Br2374     Br  0.89942507  0.23749211  0.57608958    -0.00100
Br2375     Br  0.88481621  0.12057712  0.66974301     0.00000
Br2376     Br  0.88427098  0.11976696  0.57659074     0.00000
C2377       C  0.91671242  0.67474205  0.45748528     0.30700
C2378       C  0.91369893  0.67518609  0.03665705     0.30700
C2379       C  0.92714481  0.64794818  0.47818291    -0.05500
C2380       C  0.93329619  0.69877943  0.47769831    -0.06300
C2381       C  0.88731237  0.67968060  0.47509220    -0.06100
C2382       C  0.92628689  0.64826537  0.01816902    -0.05500
C2383       C  0.93274282  0.69815971  0.01783161    -0.06300
C2384       C  0.88551325  0.67853397  0.01526813    -0.06100
C2385       C  0.94326835  0.62620337  0.03035043    -0.31500
N2386       N  0.95340819  0.61235262  0.99908875     0.15000
C2387       C  0.94383901  0.62548555  0.46724823    -0.31500
H2388       H  0.94992297  0.62000999  0.43825510     0.16900
C2389       C  0.95207331  0.71813136  0.03023562    -0.30500
N2390       N  0.96224047  0.73233696  0.49934996     0.13700
C2391       C  0.95065286  0.72114935  0.46720095    -0.30500
C2392       C  0.86121991  0.69258735  0.02564143    -0.30800
N2393       N  0.84930140  0.70380727  0.99396532     0.14200
H2394       H  0.85470801  0.69751401  0.05464764     0.16800
C2395       C  0.86547113  0.69697192  0.46329825    -0.30800
H2396       H  0.86287920  0.70571920  0.43484499     0.16800
H2397       H  0.95572103  0.72792788  0.43834290     0.16800
H2398       H  0.94924870  0.62169166  0.05962387     0.16900
H2399       H  0.95870168  0.72182350  0.05947825     0.16800
C2400       C  0.91580132  0.67583391  0.20738329     0.30700
C2401       C  0.91735581  0.67470829  0.28659542     0.30700
C2402       C  0.92773069  0.64856369  0.22573142    -0.05500
C2403       C  0.93485409  0.69844255  0.22694289    -0.06300
C2404       C  0.88739559  0.67971152  0.22814825    -0.06100
C2405       C  0.92810316  0.64794220  0.26570026    -0.05500
C2406       C  0.93445839  0.69885086  0.26709439    -0.06300
C2407       C  0.88813812  0.67987282  0.26834354    -0.06100
C2408       C  0.94472131  0.62526425  0.27634536    -0.31500
N2409       N  0.95446830  0.61218160  0.24434096     0.15000
C2410       C  0.94468457  0.62642865  0.21330787    -0.31500
H2411       H  0.95088464  0.62214516  0.18398920     0.16900
C2412       C  0.95136429  0.72135902  0.27843830    -0.30500
N2413       N  0.96384615  0.73270923  0.24693477     0.13700
C2414       C  0.95456252  0.71847556  0.21552864    -0.30500
C2415       C  0.86527175  0.69608750  0.28006260    -0.30800
N2416       N  0.85031393  0.70422417  0.24891040     0.14200
H2417       H  0.86147477  0.70374142  0.30887689     0.16800
C2418       C  0.86374416  0.69460577  0.21731739    -0.30800
H2419       H  0.85811081  0.70033600  0.18832086     0.16800
H2420       H  0.96180275  0.72238844  0.18662628     0.16800
H2421       H  0.95061976  0.61962631  0.30528301     0.16900
H2422       H  0.95542886  0.72820790  0.30761883     0.16800
C2423       C  0.86979320  0.92619622  0.45982637     0.30700
C2424       C  0.87088630  0.92802597  0.03911336     0.30700
C2425       C  0.89814210  0.93423440  0.47808888    -0.05500
C2426       C  0.85060709  0.94863074  0.47924096    -0.06300
C2427       C  0.86169196  0.89855896  0.48084056    -0.06100
C2428       C  0.89885337  0.93448184  0.01815411    -0.05500
C2429       C  0.85022670  0.94857671  0.01946071    -0.06300
C2430       C  0.86100520  0.89974045  0.02088138    -0.06100
C2431       C  0.92245396  0.94984602  0.02852593    -0.31500
N2432       N  0.93578534  0.95905661  0.49644336     0.15000
C2433       C  0.92083969  0.95036153  0.46558129    -0.31500
H2434       H  0.92488957  0.95714478  0.43641111     0.16900
C2435       C  0.83005310  0.96780488  0.03085356    -0.30500
N2436       N  0.82025419  0.98119077  0.49929781     0.13700
C2437       C  0.83289949  0.97016622  0.46777711    -0.30500
C2438       C  0.84297384  0.87803970  0.03253976    -0.30800
N2439       N  0.83532738  0.86249675  0.50141324     0.14200
H2440       H  0.83515534  0.87452404  0.06134614     0.16800
C2441       C  0.84656807  0.87486172  0.46982249    -0.30800
H2442       H  0.84165633  0.86871098  0.44068596     0.16800
H2443       H  0.82888423  0.97694978  0.43868164     0.16800
H2444       H  0.92840530  0.95573655  0.05738106     0.16900
H2445       H  0.82318072  0.97209734  0.05989178     0.16800
C2446       C  0.87376650  0.92785108  0.20989020     0.30700
C2447       C  0.87263943  0.92577776  0.28907169     0.30700
C2448       C  0.90249125  0.93039621  0.23000713    -0.05500
C2449       C  0.85601191  0.95079263  0.23034441    -0.06300
C2450       C  0.86079557  0.90079546  0.22790223    -0.06100
C2451       C  0.90202460  0.93010270  0.27037562    -0.05500
C2452       C  0.85665340  0.95065289  0.27043728    -0.06300
C2453       C  0.86068996  0.89969269  0.26780324    -0.06100
C2454       C  0.92509058  0.94636435  0.28174091    -0.31500
N2455       N  0.93984826  0.95484564  0.25036438     0.15000
C2456       C  0.92616776  0.94543117  0.21894705    -0.31500
H2457       H  0.93150167  0.95163139  0.18993538     0.16900
C2458       C  0.84026963  0.97300943  0.28275112    -0.30500
N2459       N  0.82786674  0.98481240  0.25175256     0.13700
C2460       C  0.83664883  0.97104761  0.21982067    -0.30500
C2461       C  0.84502417  0.87615561  0.27839137    -0.30800
N2462       N  0.83548401  0.86307802  0.24630623     0.14200
H2463       H  0.83975631  0.86975125  0.30735612     0.16800
C2464       C  0.84466625  0.87799727  0.21530358    -0.30800
H2465       H  0.83876077  0.87350199  0.18597106     0.16800
H2466       H  0.82908158  0.97527151  0.19117128     0.16800
H2467       H  0.92900312  0.95403889  0.31050273     0.16900
H2468       H  0.83625977  0.97924914  0.31212179     0.16800
O2469       O  0.97833024  0.97520489  0.47006926    -0.77800
C2470       C  0.52402062  0.53011156  0.39164056     0.83300
O2471       O  0.57495179  0.97912128  0.01478515    -0.78900
O2472       O  0.56592559  0.58291532  0.47932940    -0.80400
O2473       O  0.96849981  0.56827040  0.02141056    -0.80200
O2474       O  0.96117590  0.99723841  0.02144699    -0.78800
Zn2475     Zn  0.51694943  0.99325801  0.46206771     1.55700
O2476       O  0.49414737  0.59014841  0.47654098    -0.80200
Cd2477     Cd  0.98939431  0.53017178  0.02869204     1.59700
Cd2478     Cd  0.55783876  0.51917477  0.02551584     1.59600
O2479       O  0.00162017  0.52893918  0.08384586    -0.80200
O2480       O  0.52304806  0.52595837  0.49508434    -1.90700
Cd2481     Cd  0.52771510  0.56268704  0.46666183     1.59900
O2482       O  0.54781443  0.52013822  0.08230241    -0.80200
O2483       O  0.52767915  0.55349070  0.40939209    -0.78800
C2484       C  0.56742832  0.95938935  0.49180410     0.83700
C2485       C  0.95943839  0.97806408  0.49581453     0.83400
O2486       O  0.51973206  0.00652678  0.40858842    -0.77800
C2487       C  0.97297888  0.58928454  0.99918400     0.84200
O2488       O  0.54630237  0.96229900  0.46970500    -0.77900
C2489       C  0.52495129  0.52458834  0.10033280     0.84300
C2490       C  0.58685413  0.57539142  0.49975760     0.84600
O2491       O  0.58702321  0.55181264  0.01789322    -0.80300
O2492       O  0.55072091  0.96393739  0.27147404    -0.77800
C2493       C  0.52458751  0.53002237  0.35023347     0.83300
O2494       O  0.96265427  0.99473092  0.22460707    -0.78900
O2495       O  0.49625032  0.59064904  0.26437303    -0.80400
O2496       O  0.58919727  0.55129134  0.22496977    -0.79000
O2497       O  0.57643089  0.98034563  0.22278000    -0.78800
Zn2498     Zn  0.52015530  0.99302612  0.27997069     1.55700
O2499       O  0.56898305  0.58132373  0.26605789    -0.80200
Cd2500     Cd  0.55903917  0.52017858  0.21490633     1.59700
Cd2501     Cd  0.98988879  0.52881531  0.21502273     1.59600
O2502       O  0.54863338  0.52215421  0.15867639    -0.80200
O2503       O  0.52451337  0.52588176  0.24677853    -1.90700
Cd2504     Cd  0.52930958  0.56259939  0.27528110     1.59900
O2505       O  0.00180128  0.52727701  0.15908778    -0.80200
O2506       O  0.52738830  0.55348559  0.33243992    -0.78800
C2507       C  0.96269483  0.97496990  0.24964748     0.83700
C2508       C  0.57062110  0.96107091  0.24721613     0.83400
O2509       O  0.52203393  0.00620970  0.33332654    -0.77800
C2510       C  0.59000451  0.57365085  0.24566898     0.84200
O2511       O  0.98269889  0.97251950  0.27357648    -0.77900
C2512       C  0.52520661  0.52468359  0.14162939     0.84300
C2513       C  0.97406945  0.58899239  0.24383827     0.84600
O2514       O  0.96863076  0.56709953  0.22344722    -0.80300
C2515       C  0.60482422  0.86124776  0.45431274     0.30700
C2516       C  0.60763386  0.86376573  0.03371061     0.30700
C2517       C  0.59887855  0.89076607  0.47287111    -0.05500
C2518       C  0.58461187  0.84172921  0.47657141    -0.06300
C2519       C  0.63372636  0.85415804  0.47254181    -0.06100
C2520       C  0.59937112  0.89165136  0.01311381    -0.05500
C2521       C  0.58538898  0.84334903  0.01647926    -0.06300
C2522       C  0.63479836  0.85544799  0.01252268    -0.06100
C2523       C  0.58791900  0.91742049  0.02390014    -0.31500
N2524       N  0.58230223  0.93284375  0.49201905     0.15000
C2525       C  0.58927399  0.91707673  0.46081909    -0.31500
H2526       H  0.58612436  0.92383583  0.43152008     0.16900
C2527       C  0.56356331  0.82638486  0.02986235    -0.30500
N2528       N  0.55093041  0.81376828  0.49939421     0.13700
C2529       C  0.56344334  0.82303243  0.46678458    -0.30500
C2530       C  0.66101932  0.84632761  0.02373265    -0.30800
N2531       N  0.67593090  0.83910508  0.49206898     0.14200
H2532       H  0.66796640  0.84312599  0.05292716     0.16800
C2533       C  0.65984430  0.84431339  0.46069532    -0.30800
H2534       H  0.66635889  0.83997813  0.43154061     0.16800
H2535       H  0.55726731  0.81686541  0.43810430     0.16800
H2536       H  0.58268525  0.92391839  0.05281787     0.16900
H2537       H  0.55739819  0.82322049  0.05945540     0.16800
C2538       C  0.60845513  0.86473951  0.20486674     0.30700
C2539       C  0.60601886  0.86324345  0.28435373     0.30700
C2540       C  0.60122658  0.89312902  0.22519807    -0.05500
C2541       C  0.58566096  0.84520520  0.22287919    -0.06300
C2542       C  0.63547223  0.85585294  0.22576601    -0.06100
C2543       C  0.60094408  0.89260943  0.26551419    -0.05500
C2544       C  0.58510404  0.84414995  0.26277370    -0.06300
C2545       C  0.63473730  0.85577618  0.26578372    -0.06100
C2546       C  0.59268914  0.91924906  0.27756114    -0.31500
N2547       N  0.58591718  0.93494438  0.24639726     0.15000
C2548       C  0.59067810  0.91922730  0.21444271    -0.31500
H2549       H  0.58516697  0.92566829  0.18565821     0.16900
C2550       C  0.56329866  0.82645652  0.27353946    -0.30500
N2551       N  0.55019119  0.81707568  0.24156710     0.13700
C2552       C  0.56323692  0.82860679  0.21043141    -0.30500
C2553       C  0.66132562  0.84766541  0.27771536    -0.30800
N2554       N  0.67702394  0.84094229  0.24638465     0.14200
H2555       H  0.66806707  0.84467603  0.30702187     0.16800
C2556       C  0.66156359  0.84621922  0.21460957    -0.30800
H2557       H  0.66837238  0.84203825  0.18550539     0.16800
H2558       H  0.55708027  0.82482156  0.18102786     0.16800
H2559       H  0.58992144  0.92621117  0.30689118     0.16900
H2560       H  0.55731502  0.82076550  0.30252659     0.16800
C2561       C  0.68282506  0.61462105  0.04021410     0.30700
C2562       C  0.68178345  0.61598301  0.46072993     0.30700
C2563       C  0.68795479  0.64409384  0.02123213    -0.05500
C2564       C  0.70360712  0.59558309  0.01917792    -0.06300
C2565       C  0.65426259  0.60656669  0.02112123    -0.06100
C2566       C  0.68718578  0.64479205  0.48101721    -0.05500
C2567       C  0.70316007  0.59615407  0.47954670    -0.06300
C2568       C  0.65372948  0.60773519  0.48082107    -0.06100
C2569       C  0.69267771  0.67251847  0.47010041    -0.31500
N2570       N  0.69881406  0.68800948  0.50179324     0.15000
C2571       C  0.69456921  0.67134466  0.03309845    -0.31500
H2572       H  0.69821554  0.67816875  0.06229145     0.16900
C2573       C  0.72316794  0.57714656  0.46692002    -0.30500
N2574       N  0.73545673  0.56536100  0.49803516     0.13700
C2575       C  0.72376171  0.57638994  0.03008260    -0.30500
C2576       C  0.62674856  0.60058001  0.46956651    -0.30800
N2577       N  0.61159922  0.59306785  0.50099890     0.14200
H2578       H  0.61932201  0.59861449  0.44039394     0.16800
C2579       C  0.62770329  0.59761910  0.03257160    -0.30800
H2580       H  0.62086992  0.59334103  0.06163471     0.16800
H2581       H  0.72940780  0.57062760  0.05907908     0.16800
H2582       H  0.69490076  0.68023565  0.44102446     0.16900
H2583       H  0.72829446  0.57207053  0.43745573     0.16800
C2584       C  0.68448404  0.61513977  0.28944065     0.30700
C2585       C  0.68679389  0.61353250  0.21004861     0.30700
C2586       C  0.68840331  0.64419423  0.26884871    -0.05500
C2587       C  0.70772923  0.59698133  0.27124585    -0.06300
C2588       C  0.65736673  0.60473934  0.26881964    -0.06100
C2589       C  0.68949591  0.64342522  0.22860783    -0.05500
C2590       C  0.70893149  0.59632790  0.23154017    -0.06300
C2591       C  0.65879032  0.60356670  0.22870924    -0.06100
C2592       C  0.69463050  0.67099304  0.21636910    -0.31500
N2593       N  0.69823407  0.68791851  0.24750785     0.15000
C2594       C  0.69298476  0.67211973  0.27937299    -0.31500
H2595       H  0.69494074  0.68004031  0.30836394     0.16900
C2596       C  0.73105978  0.57908411  0.22138843    -0.30500
N2597       N  0.74325453  0.56937228  0.25384933     0.13700
C2598       C  0.72917197  0.57995444  0.28452694    -0.30500
C2599       C  0.63273369  0.59449571  0.21601514    -0.30800
N2600       N  0.61574648  0.58983503  0.24671185     0.14200
H2601       H  0.62658899  0.59085465  0.18658142     0.16800
C2602       C  0.63005051  0.59714319  0.27891339    -0.30800
H2603       H  0.62161469  0.59553183  0.30769709     0.16800
H2604       H  0.73381021  0.57507834  0.31415096     0.16800
H2605       H  0.69838143  0.67775303  0.18715434     0.16900
H2606       H  0.73741661  0.57336651  0.19258398     0.16800
O2607       O  0.74431129  0.77136976  0.41034633    -0.77800
C2608       C  0.71638479  0.71295498  0.50129663     0.83300
O2609       O  0.72118465  0.83027674  0.01573697    -0.78900
O2610       O  0.77221158  0.75476228  0.08498440    -0.80400
O2611       O  0.82744449  0.74530777  0.47221951    -0.80200
O2612       O  0.79021905  0.78253513  0.40957747    -0.78800
Zn2613     Zn  0.73236931  0.76985535  0.46471446     1.55700
O2614       O  0.80646268  0.71993487  0.01816592    -0.80200
Cd2615     Cd  0.80080356  0.78018274  0.46600278     1.59700
Cd2616     Cd  0.75988825  0.81139866  0.02757279     1.59600
O2617       O  0.82192707  0.81763079  0.47934633    -0.80200
O2618       O  0.76534166  0.77610499  0.49645336    -1.90700
Cd2619     Cd  0.77005140  0.74228563  0.02974220     1.59900
O2620       O  0.79333661  0.84000103  0.02022010    -0.80200
O2621       O  0.73613775  0.71488965  0.02575186    -0.78800
C2622       C  0.70153201  0.82301895  0.49277914     0.83700
C2623       C  0.76703114  0.77749440  0.39277815     0.83400
O2624       O  0.71320266  0.73163987  0.47519366    -0.77800
C2625       C  0.82662481  0.72381063  0.99453401     0.84200
O2626       O  0.70347280  0.80093548  0.47175285    -0.77900
C2627       C  0.81606332  0.83889382  0.00059908     0.84300
C2628       C  0.76622438  0.77781970  0.10187798     0.84600
O2629       O  0.75969108  0.80059972  0.08448525    -0.80300
O2630       O  0.71207323  0.73264033  0.22295274    -0.77800
C2631       C  0.70233436  0.82442680  0.24676735     0.83300
O2632       O  0.79035570  0.77885937  0.15956358    -0.78900
O2633       O  0.79423415  0.84031447  0.26666963    -0.80400
O2634       O  0.76829413  0.75387327  0.33485010    -0.80200
O2635       O  0.73573175  0.71420253  0.27180792    -0.78800
Zn2636     Zn  0.73181943  0.77138252  0.21508762     1.55700
O2637       O  0.76417325  0.80131188  0.33433523    -0.80200
Cd2638     Cd  0.76905926  0.74183638  0.27932308     1.59700
Cd2639     Cd  0.80110345  0.77924901  0.21593759     1.59600
O2640       O  0.80657230  0.71991928  0.27128452    -0.80200
O2641       O  0.76542367  0.77616685  0.24641278    -1.90700
Cd2642     Cd  0.76147170  0.81178970  0.27751980     1.59900
O2643       O  0.82815872  0.74506268  0.22560542    -0.80200
O2644       O  0.72246158  0.83125453  0.26915497    -0.78800
C2645       C  0.76662334  0.77763648  0.14293633     0.83700
C2646       C  0.71572497  0.71298046  0.24766227     0.83400
O2647       O  0.70374867  0.80264571  0.22509712    -0.77800
C2648       C  0.76657222  0.77768540  0.35171868     0.84200
O2649       O  0.74330314  0.77505748  0.16062282    -0.77900
C2650       C  0.82733491  0.72396665  0.24866168     0.84300
C2651       C  0.81637272  0.83933093  0.24586160     0.84600
O2652       O  0.82212345  0.81773093  0.22518209    -0.80300
C2653       C  0.67157775  0.59151805  0.39538867    -0.01100
C2654       C  0.68387752  0.61449943  0.41620647     0.08500
C2655       C  0.70546951  0.62947844  0.39594336    -0.01300
C2656       C  0.70597964  0.62960992  0.35523779    -0.01300
C2657       C  0.68544505  0.61397962  0.33409370     0.08700
C2658       C  0.67269956  0.59108935  0.35471251    -0.01500
Br2659     Br  0.66491001  0.55516796  0.32925744     0.00000
Br2660     Br  0.66064964  0.55658772  0.42139380    -0.00100
Br2661     Br  0.73954334  0.64445653  0.33009560     0.00000
Br2662     Br  0.73923189  0.64219885  0.42238586     0.00000
C2663       C  0.70974482  0.62659269  0.14451860    -0.01100
C2664       C  0.68941278  0.61091004  0.16581097     0.08500
C2665       C  0.67732559  0.58759089  0.14573607    -0.01300
C2666       C  0.67511791  0.58843798  0.10522314    -0.01300
C2667       C  0.68646428  0.61199339  0.08443517     0.08700
C2668       C  0.70864887  0.62666212  0.10387594    -0.01500
Br2669     Br  0.74217262  0.63904084  0.07637345     0.00000
Br2670     Br  0.74340385  0.64100378  0.16943193    -0.00100
Br2671     Br  0.66385806  0.55378890  0.07915479     0.00000
Br2672     Br  0.67219346  0.55134990  0.17153866     0.00000
C2673       C  0.57977512  0.87248614  0.38982776    -0.01100
C2674       C  0.60155099  0.85838847  0.41006102     0.08500
C2675       C  0.61436611  0.83596506  0.38915245    -0.01300
C2676       C  0.61493996  0.83679035  0.34848121    -0.01300
C2677       C  0.60265073  0.86006424  0.32858526     0.08700
C2678       C  0.58048083  0.87365977  0.34917499    -0.01500
Br2679     Br  0.54677995  0.88636940  0.32312972     0.00000
Br2680     Br  0.54473660  0.88174474  0.41569784    -0.00100
Br2681     Br  0.62469201  0.80218920  0.32129321     0.00000
Br2682     Br  0.62271413  0.80030159  0.41444664     0.00000
C2683       C  0.62212700  0.88747020  0.09846306    -0.01100
C2684       C  0.61103078  0.86364151  0.07816911     0.08500
C2685       C  0.61040299  0.83767830  0.09923069    -0.01300
C2686       C  0.61055671  0.83794292  0.13987467    -0.01300
C2687       C  0.61157426  0.86411531  0.16034292     0.08700
C2688       C  0.62257668  0.88761125  0.13921851    -0.01500
Br2689     Br  0.64556572  0.91614167  0.16449564     0.00000
Br2690     Br  0.64358800  0.91658610  0.07171083    -0.00100
Br2691     Br  0.61595241  0.80211274  0.16628542     0.00000
Br2692     Br  0.61593836  0.80144335  0.07366727     0.00000
C2693       C  0.81425098  0.53503533  0.25712021    -0.01100
C2694       C  0.80660090  0.50624323  0.25291411     0.08500
C2695       C  0.77807098  0.99842327  0.24955210    -0.01300
C2696       C  0.75713908  0.51934457  0.25116369    -0.01300
C2697       C  0.76472079  0.54814633  0.25504178     0.08700
C2698       C  0.79327680  0.55607116  0.25791218    -0.01500
Br2699     Br  0.80332780  0.59570454  0.26173749     0.00000
Br2700     Br  0.85353111  0.54527851  0.26009213    -0.00100
Br2701     Br  0.71790936  0.50895663  0.24798219     0.00000
Br2702     Br  0.76792073  0.95907765  0.24212954     0.00000
C2703       C  0.77033099  0.99438713  0.49929850    -0.01100
C2704       C  0.79888701  0.50253290  0.49911267     0.08500
C2705       C  0.80642977  0.53153806  0.99872004    -0.01300
C2706       C  0.78536115  0.55237763  0.99721250    -0.01300
C2707       C  0.75685945  0.54416670  0.49755852     0.08700
C2708       C  0.74929149  0.51524979  0.49921225    -0.01500
Br2709     Br  0.71007554  0.50467605  0.50198685     0.00000
Br2710     Br  0.76040029  0.95462549  0.49953534    -0.00100
Br2711     Br  0.79502895  0.59221231  0.99491131     0.00000
Br2712     Br  0.84551483  0.54240504  0.00140200     0.00000
C2713       C  0.84394702  0.92529046  0.39414635    -0.01100
C2714       C  0.86930309  0.92293648  0.41547081     0.08500
C2715       C  0.89244885  0.91074766  0.39541155    -0.01300
C2716       C  0.89298336  0.91028058  0.35479726    -0.01300
C2717       C  0.87071913  0.92257503  0.33342390     0.08700
C2718       C  0.84468062  0.92565691  0.35350861    -0.01500
Br2719     Br  0.80890074  0.92470441  0.32675692     0.00000
Br2720     Br  0.80753884  0.92083467  0.41898501    -0.00100
Br2721     Br  0.92069937  0.88640027  0.32981173     0.00000
Br2722     Br  0.92083692  0.88913398  0.42246719     0.00000
C2723       C  0.87485205  0.95512185  0.10419407    -0.01100
C2724       C  0.87424595  0.92892986  0.08347642     0.08500
C2725       C  0.88435559  0.90480019  0.10385154    -0.01300
C2726       C  0.88517357  0.90482018  0.14443863    -0.01300
C2727       C  0.87620468  0.92899999  0.16546859     0.08700
C2728       C  0.87642263  0.95513981  0.14479211    -0.01500
Br2729     Br  0.88668332  0.99072612  0.16973505     0.00000
Br2730     Br  0.87992019  0.99138057  0.07828143    -0.00100
Br2731     Br  0.90441822  0.87398005  0.17015890     0.00000
Br2732     Br  0.90310918  0.87395665  0.07729011     0.00000
C2733       C  0.51381282  0.74616510  0.24097961    -0.01100
C2734       C  0.48558873  0.75411509  0.24672560     0.08500
C2735       C  0.47876421  0.78305508  0.25120548    -0.01300
C2736       C  0.49998313  0.80406191  0.24790390    -0.01300
C2737       C  0.52812955  0.79605707  0.24145238     0.08700
C2738       C  0.53505644  0.76708168  0.23869284    -0.01500
Br2739     Br  0.57390497  0.75629958  0.23323449     0.00000
Br2740     Br  0.02326491  0.70644022  0.23810143    -0.00100
Br2741     Br  0.49088795  0.84381266  0.25192867     0.00000
Br2742     Br  0.94049279  0.79355189  0.26248528     0.00000
C2743       C  0.51272154  0.74394849  0.99979860    -0.01100
C2744       C  0.48453765  0.75300063  0.50023907     0.08500
C2745       C  0.97832208  0.78221295  0.50150087    -0.01300
C2746       C  0.50034789  0.80239773  0.50125989    -0.01300
C2747       C  0.52849682  0.79330464  0.50098448     0.08700
C2748       C  0.53469948  0.76409846  0.00043429    -0.01500
Br2749     Br  0.57338527  0.75204855  0.00015794     0.00000
Br2750     Br  0.52091995  0.70390883  0.99808231    -0.00100
Br2751     Br  0.49244773  0.84250606  0.50005029     0.00000
Br2752     Br  0.93967764  0.79419660  0.50384763     0.00000
C2753       C  0.89605156  0.65844942  0.39231842    -0.01100
C2754       C  0.91826164  0.67180057  0.41308979     0.08500
C2755       C  0.94392519  0.67558419  0.39243365    -0.01300
C2756       C  0.94409478  0.67556164  0.35176405    -0.01300
C2757       C  0.91856164  0.67171961  0.33099252     0.08700
C2758       C  0.89616609  0.65847903  0.35170051    -0.01500
Br2759     Br  0.86871102  0.63468177  0.32563774     0.00000
Br2760     Br  0.86862477  0.63435021  0.41826846    -0.00100
Br2761     Br  0.98041379  0.67431423  0.32608946     0.00000
Br2762     Br  0.97992052  0.67400696  0.41833173     0.00000
C2763       C  0.90958838  0.70225295  0.10158299    -0.01100
C2764       C  0.91060296  0.67607101  0.08104581     0.08500
C2765       C  0.90238299  0.65156346  0.10217433    -0.01300
C2766       C  0.90301547  0.65180902  0.14280610    -0.01300
C2767       C  0.91246123  0.67641765  0.16301997     0.08700
C2768       C  0.91096456  0.70248662  0.14216571    -0.01500
Br2769     Br  0.90420530  0.73859788  0.16769505     0.00000
Br2770     Br  0.89942516  0.73749209  0.07608955    -0.00100
Br2771     Br  0.88481632  0.62057710  0.16974318     0.00000
Br2772     Br  0.88427092  0.61976696  0.07659077     0.00000
C2773       C  0.91671237  0.67474193  0.95748527     0.30700
C2774       C  0.91369892  0.67518616  0.53665704     0.30700
C2775       C  0.92714472  0.64794807  0.97818294    -0.05500
C2776       C  0.93329619  0.69877930  0.97769827    -0.06300
C2777       C  0.88731234  0.67968052  0.97509220    -0.06100
C2778       C  0.92628694  0.64826547  0.51816899    -0.05500
C2779       C  0.93274280  0.69815980  0.51783166    -0.06300
C2780       C  0.88551325  0.67853401  0.51526811    -0.06100
C2781       C  0.94326843  0.62620348  0.53035041    -0.31500
N2782       N  0.95340825  0.61235271  0.49908875     0.15000
C2783       C  0.94383890  0.62548545  0.96724824    -0.31500
H2784       H  0.94992283  0.62000990  0.93825512     0.16900
C2785       C  0.95207328  0.71813143  0.53023571    -0.30500
N2786       N  0.96224052  0.73233683  0.99934981     0.13700
C2787       C  0.95065289  0.72114918  0.96720086    -0.30500
C2788       C  0.86121990  0.69258736  0.52564140    -0.30800
N2789       N  0.84930136  0.70380727  0.49396532     0.14200
H2790       H  0.85470798  0.69751399  0.55464769     0.16800
C2791       C  0.86547115  0.69697188  0.96329826    -0.30800
H2792       H  0.86287925  0.70571915  0.93484498     0.16800
H2793       H  0.95572105  0.72792765  0.93834276     0.16800
H2794       H  0.94924878  0.62169178  0.55962387     0.16900
H2795       H  0.95870171  0.72182351  0.55947840     0.16800
C2796       C  0.91580128  0.67583395  0.70738327     0.30700
C2797       C  0.91735575  0.67470833  0.78659540     0.30700
C2798       C  0.92773069  0.64856375  0.72573139    -0.05500
C2799       C  0.93485401  0.69844262  0.72694288    -0.06300
C2800       C  0.88739553  0.67971150  0.72814825    -0.06100
C2801       C  0.92810314  0.64794227  0.76570022    -0.05500
C2802       C  0.93445831  0.69885095  0.76709439    -0.06300
C2803       C  0.88813805  0.67987281  0.76834354    -0.06100
C2804       C  0.94472129  0.62526431  0.77634533    -0.31500
N2805       N  0.95446829  0.61218165  0.74434094     0.15000
C2806       C  0.94468455  0.62642870  0.71330782    -0.31500
H2807       H  0.95088458  0.62214519  0.68398918     0.16900
C2808       C  0.95136421  0.72135908  0.77843831    -0.30500
N2809       N  0.96384605  0.73270933  0.74693479     0.13700
C2810       C  0.95456242  0.71847565  0.71552867    -0.30500
C2811       C  0.86527167  0.69608749  0.78006260    -0.30800
N2812       N  0.85031387  0.70422419  0.74891040     0.14200
H2813       H  0.86147467  0.70374136  0.80887690     0.16800
C2814       C  0.86374412  0.69460580  0.71731739    -0.30800
H2815       H  0.85811079  0.70033602  0.68832089     0.16800
H2816       H  0.96180268  0.72238853  0.68662624     0.16800
H2817       H  0.95061970  0.61962635  0.80528298     0.16900
H2818       H  0.95542882  0.72820794  0.80761890     0.16800
C2819       C  0.86979327  0.92619613  0.95982635     0.30700
C2820       C  0.87088626  0.92802606  0.53911337     0.30700
C2821       C  0.89814215  0.93423439  0.97808888    -0.05500
C2822       C  0.85060710  0.94863061  0.97924094    -0.06300
C2823       C  0.86169212  0.89855886  0.98084057    -0.06100
C2824       C  0.89885334  0.93448185  0.51815412    -0.05500
C2825       C  0.85022673  0.94857687  0.51946073    -0.06300
C2826       C  0.86100504  0.89974056  0.52088139    -0.06100
C2827       C  0.92245394  0.94984601  0.52852590    -0.31500
N2828       N  0.93578538  0.95905662  0.99644337     0.15000
C2829       C  0.92083974  0.95036153  0.96558130    -0.31500
H2830       H  0.92488963  0.95714477  0.93641112     0.16900
C2831       C  0.83005313  0.96780505  0.53085359    -0.30500
N2832       N  0.82025420  0.98119062  0.99929779     0.13700
C2833       C  0.83289949  0.97016610  0.96777707    -0.30500
C2834       C  0.84297373  0.87803978  0.53253976    -0.30800
N2835       N  0.83532749  0.86249670  0.00141324     0.14200
H2836       H  0.83515525  0.87452407  0.56134621     0.16800
C2837       C  0.84656822  0.87486163  0.96982246    -0.30800
H2838       H  0.84165649  0.86871092  0.94068605     0.16800
H2839       H  0.82888420  0.97694968  0.93868165     0.16800
H2840       H  0.92840530  0.95573655  0.55738107     0.16900
H2841       H  0.82318075  0.97209750  0.55989181     0.16800
C2842       C  0.87376647  0.92785105  0.70989017     0.30700
C2843       C  0.87263945  0.92577768  0.78907168     0.30700
C2844       C  0.90249123  0.93039620  0.73000710    -0.05500
C2845       C  0.85601189  0.95079257  0.73034441    -0.06300
C2846       C  0.86079557  0.90079540  0.72790219    -0.06100
C2847       C  0.90202460  0.93010267  0.77037559    -0.05500
C2848       C  0.85665338  0.95065279  0.77043727    -0.06300
C2849       C  0.86069000  0.89969262  0.76780320    -0.06100
C2850       C  0.92509057  0.94636432  0.78174087    -0.31500
N2851       N  0.93984823  0.95484560  0.75036435     0.15000
C2852       C  0.92616773  0.94543115  0.71894698    -0.31500
H2853       H  0.93150163  0.95163131  0.68993535     0.16900
C2854       C  0.84026962  0.97300931  0.78275116    -0.30500
N2855       N  0.82786672  0.98481232  0.75175264     0.13700
C2856       C  0.83664884  0.97104761  0.71982069    -0.30500
C2857       C  0.84502421  0.87615555  0.77839134    -0.30800
N2858       N  0.83548399  0.86307797  0.74630622     0.14200
H2859       H  0.83975640  0.86975122  0.80735608     0.16800
C2860       C  0.84466619  0.87799725  0.71530356    -0.30800
H2861       H  0.83876064  0.87350202  0.68597104     0.16800
H2862       H  0.82908163  0.97527156  0.69117131     0.16800
H2863       H  0.92900315  0.95403885  0.81050275     0.16900
H2864       H  0.83625977  0.97924896  0.81212183     0.16800
O2865       O  0.97833029  0.97520489  0.97006925    -0.77800
C2866       C  0.52402067  0.53011165  0.89164057     0.83300
O2867       O  0.57495172  0.97912134  0.51478503    -0.78900
O2868       O  0.56592562  0.58291531  0.97932943    -0.80400
O2869       O  0.96849985  0.56827046  0.52141059    -0.80200
O2870       O  0.96117579  0.99723842  0.52144697    -0.78800
Zn2871     Zn  0.51694948  0.99325801  0.96206773     1.55700
O2872       O  0.49414738  0.59014840  0.97654102    -0.80200
Cd2873     Cd  0.98939432  0.53017178  0.52869203     1.59700
Cd2874     Cd  0.55783876  0.51917477  0.52551588     1.59600
O2875       O  0.00162019  0.52893916  0.58384581    -0.80200
O2876       O  0.52304812  0.52595842  0.99508434    -1.90700
Cd2877     Cd  0.52771515  0.56268705  0.96666185     1.59900
O2878       O  0.54781447  0.52013838  0.58230245    -0.80200
O2879       O  0.52767922  0.55349077  0.90939209    -0.78800
C2880       C  0.56742839  0.95938934  0.99180417     0.83700
C2881       C  0.95943846  0.97806408  0.99581454     0.83400
O2882       O  0.51973211  0.00652678  0.90858845    -0.77800
C2883       C  0.97297891  0.58928459  0.49918400     0.84200
O2884       O  0.54630245  0.96229904  0.96970506    -0.77900
C2885       C  0.52495129  0.52458841  0.60033281     0.84300
C2886       C  0.58685418  0.57539141  0.99975759     0.84600
O2887       O  0.58702315  0.55181266  0.51789323    -0.80300
O2888       O  0.55072102  0.96393744  0.77147408    -0.77800
C2889       C  0.52458751  0.53002242  0.85023348     0.83300
O2890       O  0.96265426  0.99473091  0.72460715    -0.78900
O2891       O  0.49625028  0.59064908  0.76437299    -0.80400
O2892       O  0.58919714  0.55129140  0.72496969    -0.79000
O2893       O  0.57643095  0.98034565  0.72277996    -0.78800
Zn2894     Zn  0.52015532  0.99302603  0.77997070     1.55700
O2895       O  0.56898303  0.58132383  0.76605789    -0.80200
Cd2896     Cd  0.55903908  0.52017858  0.71490634     1.59700
Cd2897     Cd  0.98988878  0.52881534  0.71502276     1.59600
O2898       O  0.54863330  0.52215417  0.65867643    -0.80200
O2899       O  0.52451337  0.52588182  0.74677861    -1.90700
Cd2900     Cd  0.52930959  0.56259950  0.77528111     1.59900
O2901       O  0.00180124  0.52727717  0.65908775    -0.80200
O2902       O  0.52738820  0.55348567  0.83243991    -0.78800
C2903       C  0.96269483  0.97496981  0.74964743     0.83700
C2904       C  0.57062117  0.96107095  0.74721612     0.83400
O2905       O  0.52203382  0.00620969  0.83332655    -0.77800
C2906       C  0.59000443  0.57365092  0.74566889     0.84200
O2907       O  0.98269893  0.97251931  0.77357638    -0.77900
C2908       C  0.52520657  0.52468365  0.64162940     0.84300
C2909       C  0.97406940  0.58899242  0.74383826     0.84600
O2910       O  0.96863070  0.56709953  0.72344728    -0.80300
C2911       C  0.60482419  0.86124777  0.95431274     0.30700
C2912       C  0.60763385  0.86376574  0.53371061     0.30700
C2913       C  0.59887853  0.89076608  0.97287111    -0.05500
C2914       C  0.58461184  0.84172923  0.97657141    -0.06300
C2915       C  0.63372633  0.85415805  0.97254181    -0.06100
C2916       C  0.59937113  0.89165137  0.51311381    -0.05500
C2917       C  0.58538898  0.84334903  0.51647926    -0.06300
C2918       C  0.63479837  0.85544798  0.51252270    -0.06100
C2919       C  0.58791902  0.91742051  0.52390012    -0.31500
N2920       N  0.58230224  0.93284374  0.99201907     0.15000
C2921       C  0.58927396  0.91707673  0.96081911    -0.31500
H2922       H  0.58612428  0.92383583  0.93152008     0.16900
C2923       C  0.56356326  0.82638493  0.52986234    -0.30500
N2924       N  0.55093049  0.81376818  0.99939423     0.13700
C2925       C  0.56344335  0.82303239  0.96678459    -0.30500
C2926       C  0.66101932  0.84632761  0.52373266    -0.30800
N2927       N  0.67593087  0.83910507  0.99206898     0.14200
H2928       H  0.66796640  0.84312601  0.55292720     0.16800
C2929       C  0.65984428  0.84431336  0.96069530    -0.30800
H2930       H  0.66635884  0.83997808  0.93154068     0.16800
H2931       H  0.55726731  0.81686536  0.93810433     0.16800
H2932       H  0.58268528  0.92391841  0.55281787     0.16900
H2933       H  0.55739812  0.82322059  0.55945540     0.16800
C2934       C  0.60845508  0.86473953  0.70486673     0.30700
C2935       C  0.60601878  0.86324350  0.78435372     0.30700
C2936       C  0.60122663  0.89312906  0.72519804    -0.05500
C2937       C  0.58566081  0.84520531  0.72287918    -0.06300
C2938       C  0.63547215  0.85585289  0.72576601    -0.06100
C2939       C  0.60094412  0.89260948  0.76551415    -0.05500
C2940       C  0.58510389  0.84415008  0.76277370    -0.06300
C2941       C  0.63473721  0.85577615  0.76578372    -0.06100
C2942       C  0.59268915  0.91924908  0.77756113    -0.31500
N2943       N  0.58591721  0.93494440  0.74639723     0.15000
C2944       C  0.59067813  0.91922734  0.71444265    -0.31500
H2945       H  0.58516700  0.92566829  0.68565822     0.16900
C2946       C  0.56329857  0.82645659  0.77353947    -0.30500
N2947       N  0.55019113  0.81707571  0.74156713     0.13700
C2948       C  0.56323681  0.82860684  0.71043142    -0.30500
C2949       C  0.66132554  0.84766543  0.77771537    -0.30800
N2950       N  0.67702387  0.84094231  0.74638468     0.14200
H2951       H  0.66806699  0.84467606  0.80702193     0.16800
C2952       C  0.66156352  0.84621923  0.71460959    -0.30800
H2953       H  0.66837234  0.84203831  0.68550539     0.16800
H2954       H  0.55708018  0.82482153  0.68102786     0.16800
H2955       H  0.58992141  0.92621114  0.80689113     0.16900
H2956       H  0.55731498  0.82076549  0.80252663     0.16800
C2957       C  0.68282502  0.61462111  0.54021408     0.30700
C2958       C  0.68178349  0.61598296  0.96072995     0.30700
C2959       C  0.68795475  0.64409390  0.52123209    -0.05500
C2960       C  0.70360709  0.59558314  0.51917790    -0.06300
C2961       C  0.65426255  0.60656675  0.52112120    -0.06100
C2962       C  0.68718582  0.64479201  0.98101724    -0.05500
C2963       C  0.70316011  0.59615401  0.97954672    -0.06300
C2964       C  0.65372952  0.60773514  0.98082109    -0.06100
C2965       C  0.69267778  0.67251843  0.97010049    -0.31500
N2966       N  0.69881415  0.68800941  0.00179334     0.15000
C2967       C  0.69456914  0.67134475  0.53309836    -0.31500
H2968       H  0.69821545  0.67816885  0.56229138     0.16900
C2969       C  0.72316802  0.57714652  0.96692005    -0.30500
N2970       N  0.73545682  0.56536099  0.99803523     0.13700
C2971       C  0.72376165  0.57638995  0.53008257    -0.30500
C2972       C  0.62674859  0.60058001  0.96956651    -0.30800
N2973       N  0.61159924  0.59306787  0.00099891     0.14200
H2974       H  0.61932204  0.59861449  0.94039394     0.16800
C2975       C  0.62770327  0.59761912  0.53257160    -0.30800
H2976       H  0.62086995  0.59334105  0.56163469     0.16800
H2977       H  0.72940770  0.57062757  0.55907902     0.16800
H2978       H  0.69490083  0.68023566  0.94102451     0.16900
H2979       H  0.72829452  0.57207048  0.93745578     0.16800
C2980       C  0.68448402  0.61513965  0.78944066     0.30700
C2981       C  0.68679387  0.61353243  0.71004861     0.30700
C2982       C  0.68840335  0.64419412  0.76884873    -0.05500
C2983       C  0.70772916  0.59698118  0.77124585    -0.06300
C2984       C  0.65736671  0.60473922  0.76881964    -0.06100
C2985       C  0.68949592  0.64342514  0.72860786    -0.05500
C2986       C  0.70893141  0.59632776  0.73154016    -0.06300
C2987       C  0.65879031  0.60356662  0.72870922    -0.06100
C2988       C  0.69463054  0.67099296  0.71636914    -0.31500
N2989       N  0.69823414  0.68791843  0.74750788     0.15000
C2990       C  0.69298482  0.67211962  0.77937301    -0.31500
H2991       H  0.69494076  0.68004020  0.80836398     0.16900
C2992       C  0.73105974  0.57908406  0.72138843    -0.30500
N2993       N  0.74325452  0.56937226  0.75384933     0.13700
C2994       C  0.72917195  0.57995439  0.78452693    -0.30500
C2995       C  0.63273366  0.59449570  0.71601505    -0.30800
N2996       N  0.61574642  0.58983505  0.74671177     0.14200
H2997       H  0.62658896  0.59085470  0.68658139     0.16800
C2998       C  0.63005045  0.59714314  0.77891331    -0.30800
H2999       H  0.62161456  0.59553180  0.80769702     0.16800
H3000       H  0.73381027  0.57507838  0.81415106     0.16800
H3001       H  0.69838144  0.67775296  0.68715437     0.16900
H3002       H  0.73741663  0.57336654  0.69258395     0.16800
O3003       O  0.74431128  0.77136978  0.91034633    -0.77800
C3004       C  0.71638488  0.71295489  0.00129678     0.83300
O3005       O  0.72118465  0.83027675  0.51573695    -0.78900
O3006       O  0.77221164  0.75476225  0.58498444    -0.80400
O3007       O  0.82744454  0.74530778  0.97221954    -0.80200
O3008       O  0.79021904  0.78253511  0.90957750    -0.78800
Zn3009     Zn  0.73236932  0.76985532  0.96471447     1.55700
O3010       O  0.80646264  0.71993489  0.51816595    -0.80200
Cd3011     Cd  0.80080358  0.78018274  0.96600281     1.59700
Cd3012     Cd  0.75988818  0.81139864  0.52757281     1.59600
O3013       O  0.82192714  0.81763076  0.97934635    -0.80200
O3014       O  0.76534167  0.77610498  0.99645336    -1.90700
Cd3015     Cd  0.77005134  0.74228565  0.52974220     1.59900
O3016       O  0.79333654  0.84000100  0.52022017    -0.80200
O3017       O  0.73613770  0.71488969  0.52575165    -0.78800
C3018       C  0.70153200  0.82301894  0.99277915     0.83700
C3019       C  0.76703114  0.77749440  0.89277816     0.83400
O3020       O  0.71320280  0.73163977  0.97519376    -0.77800
C3021       C  0.82662478  0.72381063  0.49453401     0.84200
O3022       O  0.70347280  0.80093547  0.97175286    -0.77900
C3023       C  0.81606325  0.83889383  0.50059911     0.84300
C3024       C  0.76622431  0.77781965  0.60187800     0.84600
O3025       O  0.75969091  0.80059963  0.58448523    -0.80300
O3026       O  0.71207323  0.73264028  0.72295277    -0.77800
C3027       C  0.70233427  0.82442680  0.74676738     0.83300
O3028       O  0.79035556  0.77885936  0.65956363    -0.78900
O3029       O  0.79423409  0.84031446  0.76666968    -0.80400
O3030       O  0.76829402  0.75387326  0.83485013    -0.80200
O3031       O  0.73573179  0.71420252  0.77180794    -0.78800
Zn3032     Zn  0.73181932  0.77138252  0.71508764     1.55700
O3033       O  0.76417330  0.80131189  0.83433524    -0.80200
Cd3034     Cd  0.76905925  0.74183636  0.77932312     1.59700
Cd3035     Cd  0.80110332  0.77924899  0.71593760     1.59600
O3036       O  0.80657224  0.71991924  0.77128454    -0.80200
O3037       O  0.76542359  0.77616680  0.74641281    -1.90700
Cd3038     Cd  0.76147162  0.81178968  0.77751980     1.59900
O3039       O  0.82815859  0.74506267  0.72560542    -0.80200
O3040       O  0.72246151  0.83125453  0.76915494    -0.78800
C3041       C  0.76662322  0.77763646  0.64293635     0.83700
C3042       C  0.71572501  0.71298041  0.74766229     0.83400
O3043       O  0.70374855  0.80264568  0.72509717    -0.77800
C3044       C  0.76657221  0.77768540  0.85171870     0.84200
O3045       O  0.74330300  0.77505748  0.66062280    -0.77900
C3046       C  0.82733482  0.72396664  0.74866167     0.84300
C3047       C  0.81637267  0.83933089  0.74586163     0.84600
O3048       O  0.82212334  0.81773088  0.72518213    -0.80300
C3049       C  0.67157782  0.59151798  0.89538869    -0.01100
C3050       C  0.68387758  0.61449936  0.91620649     0.08500
C3051       C  0.70546959  0.62947835  0.89594337    -0.01300
C3052       C  0.70597969  0.62960984  0.85523779    -0.01300
C3053       C  0.68544511  0.61397950  0.83409371     0.08700
C3054       C  0.67269959  0.59108927  0.85471254    -0.01500
Br3055     Br  0.66490986  0.55516793  0.82925747     0.00000
Br3056     Br  0.66064969  0.55658769  0.92139384    -0.00100
Br3057     Br  0.73954338  0.64445652  0.83009562     0.00000
Br3058     Br  0.73923194  0.64219884  0.92238587     0.00000
C3059       C  0.70974480  0.62659267  0.64451858    -0.01100
C3060       C  0.68941277  0.61091000  0.66581096     0.08500
C3061       C  0.67732557  0.58759087  0.64573604    -0.01300
C3062       C  0.67511781  0.58843800  0.60522312    -0.01300
C3063       C  0.68646418  0.61199342  0.58443516     0.08700
C3064       C  0.70864878  0.62666214  0.60387593    -0.01500
Br3065     Br  0.74217249  0.63904086  0.57637343     0.00000
Br3066     Br  0.74340387  0.64100376  0.66943191    -0.00100
Br3067     Br  0.66385791  0.55378891  0.57915481     0.00000
Br3068     Br  0.67219332  0.55134990  0.67153866     0.00000
C3069       C  0.57977510  0.87248619  0.88982778    -0.01100
C3070       C  0.60155095  0.85838849  0.91006101     0.08500
C3071       C  0.61436606  0.83596508  0.88915242    -0.01300
C3072       C  0.61493984  0.83679037  0.84848116    -0.01300
C3073       C  0.60265066  0.86006431  0.82858525     0.08700
C3074       C  0.58048078  0.87365987  0.84917501    -0.01500
Br3075     Br  0.54677983  0.88636941  0.82312975     0.00000
Br3076     Br  0.54473661  0.88174475  0.91569787    -0.00100
Br3077     Br  0.62469183  0.80218923  0.82129302     0.00000
Br3078     Br  0.62271398  0.80030159  0.91444662     0.00000
C3079       C  0.62212703  0.88747021  0.59846307    -0.01100
C3080       C  0.61103075  0.86364155  0.57816913     0.08500
C3081       C  0.61040295  0.83767835  0.59923072    -0.01300
C3082       C  0.61055664  0.83794294  0.63987469    -0.01300
C3083       C  0.61157424  0.86411533  0.66034293     0.08700
C3084       C  0.62257673  0.88761124  0.63921853    -0.01500
Br3085     Br  0.64556577  0.91614166  0.66449565     0.00000
Br3086     Br  0.64358804  0.91658610  0.57171085    -0.00100
Br3087     Br  0.61595245  0.80211276  0.66628543     0.00000
Br3088     Br  0.61593842  0.80144349  0.57366726     0.00000
C3089       C  0.81425097  0.53503527  0.75712026    -0.01100
C3090       C  0.80660089  0.50624320  0.75291414     0.08500
C3091       C  0.77807094  0.99842320  0.74955243    -0.01300
C3092       C  0.75713906  0.51934455  0.75116368    -0.01300
C3093       C  0.76472077  0.54814630  0.75504178     0.08700
C3094       C  0.79327678  0.55607110  0.75791220    -0.01500
Br3095     Br  0.80332785  0.59570441  0.76173751     0.00000
Br3096     Br  0.85353113  0.54527832  0.76009243    -0.00100
Br3097     Br  0.71790938  0.50895662  0.74798193     0.00000
Br3098     Br  0.76792059  0.95907761  0.74212985     0.00000
C3099       C  0.77033099  0.99438697  0.99929855    -0.01100
C3100       C  0.79888702  0.50253279  0.99911270     0.08500
C3101       C  0.80642970  0.53153818  0.49872002    -0.01300
C3102       C  0.78536106  0.55237774  0.49721241    -0.01300
C3103       C  0.75685952  0.54416663  0.99755868     0.08700
C3104       C  0.74929151  0.51524973  0.99921246    -0.01500
Br3105     Br  0.71007552  0.50467605  0.00198685     0.00000
Br3106     Br  0.76040017  0.95462532  0.99953564    -0.00100
Br3107     Br  0.79502872  0.59221248  0.49491102     0.00000
Br3108     Br  0.84551471  0.54240508  0.50140202     0.00000
C3109       C  0.84394704  0.92529025  0.89414635    -0.01100
C3110       C  0.86930312  0.92293632  0.91547081     0.08500
C3111       C  0.89244887  0.91074750  0.89541153    -0.01300
C3112       C  0.89298338  0.91028041  0.85479725    -0.01300
C3113       C  0.87071917  0.92257492  0.83342389     0.08700
C3114       C  0.84468065  0.92565675  0.85350862    -0.01500
Br3115     Br  0.80890077  0.92470439  0.82675694     0.00000
Br3116     Br  0.80753887  0.92083446  0.91898504    -0.00100
Br3117     Br  0.92069940  0.88640009  0.82981173     0.00000
Br3118     Br  0.92083700  0.88913396  0.92246722     0.00000
C3119       C  0.87485210  0.95512191  0.60419409    -0.01100
C3120       C  0.87424592  0.92892994  0.58347643     0.08500
C3121       C  0.88435545  0.90480024  0.60385154    -0.01300
C3122       C  0.88517344  0.90482017  0.64443862    -0.01300
C3123       C  0.87620462  0.92899999  0.66546858     0.08700
C3124       C  0.87642266  0.95513983  0.64479213    -0.01500
Br3125     Br  0.88668337  0.99072612  0.66973509     0.00000
Br3126     Br  0.87992025  0.99138061  0.57828145    -0.00100
Br3127     Br  0.90441824  0.87398008  0.67015888     0.00000
Br3128     Br  0.90310906  0.87395680  0.57729008     0.00000
C3129       C  0.51381270  0.74616517  0.74097930    -0.01100
C3130       C  0.48558863  0.75411518  0.74672564     0.08500
C3131       C  0.47876420  0.78305515  0.75120603    -0.01300
C3132       C  0.49998312  0.80406195  0.74790445    -0.01300
C3133       C  0.52812948  0.79605712  0.74145245     0.08700
C3134       C  0.53505633  0.76708173  0.73869257    -0.01500
Br3135     Br  0.57390482  0.75629959  0.73323393     0.00000
Br3136     Br  0.02326474  0.70644028  0.73810059    -0.00100
Br3137     Br  0.49088801  0.84381268  0.75192955     0.00000
Br3138     Br  0.94049279  0.79355190  0.76248618     0.00000
C3139       C  0.51272150  0.74394858  0.49979882    -0.01100
C3140       C  0.48453769  0.75300054  0.00023889     0.08500
C3141       C  0.97832212  0.78221280  0.00150078    -0.01300
C3142       C  0.50034795  0.80239759  0.00125989    -0.01300
C3143       C  0.52849689  0.79330451  0.00098449     0.08700
C3144       C  0.53469940  0.76409858  0.50043438    -0.01500
Br3145     Br  0.57338517  0.75204874  0.50015823     0.00000
Br3146     Br  0.52091990  0.70390889  0.49808259    -0.00100
Br3147     Br  0.49244777  0.84250590  0.00005031     0.00000
Br3148     Br  0.93967763  0.79419640  0.00384733     0.00000
C3149       C  0.89605156  0.65844928  0.89231833    -0.01100
C3150       C  0.91826162  0.67180042  0.91308974     0.08500
C3151       C  0.94392515  0.67558406  0.89243356    -0.01300
C3152       C  0.94409472  0.67556161  0.85176396    -0.01300
C3153       C  0.91856158  0.67171961  0.83099248     0.08700
C3154       C  0.89616606  0.65847896  0.85170042    -0.01500
Br3155     Br  0.86871091  0.63468180  0.82563754     0.00000
Br3156     Br  0.86862463  0.63435021  0.91826824    -0.00100
Br3157     Br  0.98041368  0.67431423  0.82608922     0.00000
Br3158     Br  0.97992045  0.67400674  0.91833154     0.00000
C3159       C  0.90958823  0.70225298  0.60158300    -0.01100
C3160       C  0.91060287  0.67607105  0.58104580     0.08500
C3161       C  0.90238289  0.65156351  0.60217429    -0.01300
C3162       C  0.90301537  0.65180905  0.64280606    -0.01300
C3163       C  0.91246117  0.67641768  0.66301996     0.08700
C3164       C  0.91096443  0.70248667  0.64216573    -0.01500
Br3165     Br  0.90420517  0.73859801  0.66769505     0.00000
Br3166     Br  0.89942501  0.73749210  0.57608956    -0.00100
Br3167     Br  0.88481618  0.62057711  0.66974300     0.00000
Br3168     Br  0.88427096  0.61976693  0.57659072     0.00000
loop_ 
_geom_bond_atom_site_label_1 
_geom_bond_atom_site_label_2 
_geom_bond_distance 
_geom_bond_site_symmetry_2 
_ccdc_geom_bond_type 
C1            C3   1.538       .  S
C1            C5   1.542       .  S
C1            C4   1.545       .  S
C1          C378   1.556       .  S
C2            C6   1.543       .  S
C2            C8   1.544       .  S
C2            C7   1.548       .  S
C2          C388   1.556       .  S
C3           C11   1.377       .  A
C3          C402   1.396       .  A
C4           C15   1.380       .  A
C4          C403   1.401       .  A
C5           C19   1.385       .  A
C5          C404   1.405       .  A
C6            C9   1.385       .  A
C6          C399   1.396   1_554  A
C7           C13   1.379       .  A
C7          C400   1.401   1_554  A
C8           C16   1.380       .  A
C8          C401   1.405   1_554  A
C9           N10   1.358   1_554  A
C9           H22   1.083       .  S
N10         C407   1.353       .  A
N10         C111   1.432       .  S
C11         N406   1.353       .  A
C11          H12   1.082       .  S
C13         N410   1.354   1_554  A
C13          H23   1.082       .  S
N14          C15   1.356       .  A
N14         C409   1.354       .  A
N14        C1952   1.432       .  S
C15          H21   1.082       .  S
C16          N17   1.352   1_554  A
C16          H18   1.082       .  S
N17         C415   1.354       .  A
N17         C249   1.434       .  S
C19         N413   1.354       .  A
C19          H20   1.082       .  S
C24          C26   1.545       .  S
C24          C28   1.540       .  S
C24          C27   1.551       .  S
C24         C391   1.557       .  S
C25          C29   1.542       .  S
C25          C31   1.549       .  S
C25          C30   1.547       .  S
C25         C381   1.557       .  S
C26          C34   1.388       .  A
C26          C29   1.395       .  A
C27          C38   1.381       .  A
C27          C30   1.401       .  A
C28          C42   1.381       .  A
C28          C31   1.403       .  A
C29          C32   1.382       .  A
C30          C36   1.382       .  A
C31          C39   1.390       .  A
C32          N33   1.356       .  A
C32          H45   1.082       .  S
N33          C34   1.358       .  A
N33         C137   1.438       .  S
C34          H35   1.082       .  S
C36          N37   1.355       .  A
C36          H46   1.085       .  S
N37          C38   1.357       .  A
N37        C1942   1.437       .  S
C38          H44   1.079       .  S
C39          N40   1.357       .  A
C39          H41   1.082       .  S
N40          C42   1.350       .  A
N40         C274   1.437       .  S
C42          H43   1.082       .  S
C47          C49   1.536       .  S
C47          C51   1.538       .  S
C47          C50   1.551       .  S
C47         C338   1.555       .  S
C48          C52   1.542       .  S
C48          C54   1.544       .  S
C48          C53   1.544       .  S
C48         C348   1.557       .  S
C49          C57   1.383       .  A
C49         C448   1.398       .  A
C50          C61   1.380       .  A
C50         C449   1.403       .  A
C51          C65   1.377       .  A
C51         C450   1.398       .  A
C52          C55   1.378       .  A
C52         C445   1.398   1_554  A
C53          C59   1.378       .  A
C53         C446   1.403   1_554  A
C54          C62   1.387       .  A
C54         C447   1.398   1_554  A
C55         N452   1.353   1_554  A
C55          H68   1.082       .  S
N56          C57   1.353       .  A
N56         C451   1.353       .  A
N56         C109   1.430       .  S
C57          H58   1.083       .  S
C59         N456   1.354   1_554  A
C59          H69   1.082       .  S
N60          C61   1.355       .  A
N60         C455   1.354       .  A
N60        C1120   1.431       .  S
C61          H67   1.082       .  S
C62         N459   1.358       .  A
C62          H64   1.082       .  S
N63          C65   1.352       .  A
N63         C458   1.358       .  A
N63         C647   1.433       .  S
C65          H66   1.083       .  S
C70          C72   1.540       .  S
C70          C74   1.542       .  S
C70          C73   1.546       .  S
C70         C351   1.555       .  S
C71          C75   1.550       .  S
C71          C77   1.539       .  S
C71          C76   1.543       .  S
C71         C341   1.557       .  S
C72          C80   1.378       .  A
C72          C75   1.409       .  A
C73          C84   1.378       .  A
C73          C76   1.399       .  A
C74          C88   1.385       .  A
C74          C77   1.393       .  A
C75          C78   1.390       .  A
C76          C82   1.379       .  A
C77          C85   1.379       .  A
C78          N79   1.356       .  A
C78          H91   1.083       .  S
N79          C80   1.349       .  A
N79         C131   1.435       .  S
C80          H81   1.082       .  S
C82          N83   1.354       .  A
C82          H92   1.082       .  S
N83          C84   1.354       .  A
N83        C1110   1.431       .  S
C84          H90   1.082       .  S
C85          N86   1.355       .  A
C85          H87   1.082       .  S
N86          C88   1.358       .  A
N86         C275   1.434       .  S
C88          H89   1.083       .  S
O93         C109   1.274       .  A
O93       Zn1683   2.033       .  S
C94         O107   1.272       .  A
C94         O902   1.271       .  A
C94         C117   1.445       .  S
O95         C504   1.276   1_554  A
O95        Cd894   2.088       .  S
O96         C114   1.277       .  A
O96        Cd105   2.091       .  S
O97         C111   1.272   1_554  A
O97        Cd101   2.069       .  S
O98         C505   1.272   1_554  A
O98        Cd893   2.057       .  S
Zn99        O110   1.971       .  S
Zn99        O112   2.039       .  S
Zn99       O1677   2.033   1_455  S
Zn99        O896   1.941       .  S
O100       C2091   1.276       .  A
O100       Cd105   2.085   1_655  S
Cd101       O103   2.013       .  S
Cd101       O890   2.057   1_545  S
Cd101      O2084   1.989   1_554  S
Cd102       O106   2.036       .  S
Cd102       O115   2.077       .  S
Cd102       O887   2.088   1_545  S
Cd102       O500   1.994   1_554  S
O103       C1697   1.268       .  A
O104       Zn891   1.941   1_545  S
O104       Cd105   2.002       .  S
O104      Cd2081   1.989   1_455  S
O104       Cd498   1.994       .  S
Cd105       O107   2.044       .  S
O106        C113   1.271       .  A
C108        N148   1.438       .  S
C108        O112   1.275       .  A
C108        O491   1.276       .  A
C109        O494   1.272       .  A
O110        C886   1.271       .  A
C111       O2080   1.276       .  A
C113       O1687   1.268       .  A
C113        C136   1.441       .  S
C114        N201   1.435       .  S
C114        O511   1.276       .  A
O115        C510   1.276   1_554  A
O116        C132   1.274       .  A
O116       Zn122   2.021       .  S
C117        O130   1.272       .  A
C117        O925   1.270       .  A
O118        C131   1.275       .  A
O118       Cd917   2.078       .  S
O119       C1721   1.278       .  A
O119       Cd128   2.092   1_655  S
O120        C134   1.275       .  A
O120       Cd124   2.071       .  S
O121        C132   1.272       .  A
O121       Cd916   2.070       .  S
Zn122       O133   1.964       .  S
Zn122      O1719   2.030   1_455  S
Zn122       O919   1.940       .  S
O123        C134   1.277       .  A
O123       Cd128   2.097       .  S
Cd124       O126   2.027       .  S
Cd124       O913   2.070   1_545  S
Cd124       O127   1.996       .  S
Cd125       O129   2.031       .  S
Cd125       O138   2.089       .  S
Cd125       O910   2.078   1_545  S
Cd125      O1711   1.991       .  S
O126        C136   1.269       .  A
O127       Zn914   1.940   1_545  S
O127       Cd128   2.003       .  S
O127      Cd1709   1.991   1_455  S
Cd128       O130   2.041       .  S
O129       C1720   1.271       .  A
C131        O135   1.273       .  A
C132        N171   1.431       .  S
O133        C909   1.270       .  A
C134        N224   1.436       .  S
O135      Zn1706   2.030       .  S
C136       O1713   1.271       .  A
C137        O138   1.276       .  A
C137       O1703   1.278       .  A
C139        C141   1.558       .  S
C139        C143   1.553       .  S
C139        C142   1.532       .  S
C139        C298   1.558       .  S
C140        C144   1.548       .  S
C140        C146   1.537       .  S
C140        C145   1.546       .  S
C140        C308   1.560       .  S
C141        C149   1.387       .  A
C141        C540   1.405       .  A
C142        C153   1.375       .  A
C142        C541   1.395       .  A
C143        C157   1.388       .  A
C143        C542   1.397       .  A
C144        C147   1.382       .  A
C144        C537   1.405   1_554  A
C145        C151   1.383       .  A
C145        C538   1.395   1_554  A
C146        C154   1.377       .  A
C146        C539   1.397   1_554  A
C147        N544   1.356   1_554  A
C147        H160   1.082       .  S
N148        C149   1.358       .  A
N148        C543   1.356       .  A
C149        H150   1.082       .  S
C151        N548   1.357   1_554  A
C151        H161   1.082       .  S
N152        C153   1.352       .  A
N152        C547   1.357       .  A
N152        C371   1.431       .  S
C153        H159   1.083       .  S
C154        N551   1.354   1_554  A
C154        H156   1.083       .  S
N155        C157   1.360       .  A
N155        C550   1.354       .  A
N155        C246   1.436       .  S
C157        H158   1.082       .  S
C162        C164   1.551       .  S
C162        C166   1.538       .  S
C162        C165   1.546       .  S
C162        C311   1.560       .  S
C163        C167   1.550       .  S
C163        C169   1.549       .  S
C163        C168   1.534       .  S
C163        C301   1.558       .  S
C164        C172   1.381       .  A
C164        C167   1.407       .  A
C165        C176   1.387       .  A
C165        C168   1.393       .  A
C166        C180   1.376       .  A
C166        C169   1.396       .  A
C167        C170   1.379       .  A
C168        C174   1.375       .  A
C169        C177   1.386       .  A
C170        N171   1.355       .  A
C170        H183   1.082       .  S
N171        C172   1.356       .  A
C172        H173   1.083       .  S
C174        N175   1.352       .  A
C174        H184   1.083       .  S
N175        C176   1.359       .  A
N175        C361   1.435       .  S
C176        H182   1.082       .  S
C177        N178   1.359       .  A
C177        H179   1.082       .  S
N178        C180   1.356       .  A
N178        C255   1.435       .  S
C180        H181   1.083       .  S
C185        C187   1.553       .  S
C185        C189   1.557       .  S
C185        C188   1.522       .  S
C185        C291   1.558       .  S
C186        C190   1.548       .  S
C186        C192   1.550       .  S
C186        C191   1.532       .  S
C186        C278   1.558       .  S
C187        C195   1.380       .  A
C187        C586   1.404   1_554  A
C188        C199   1.374       .  A
C188        C587   1.383   1_554  A
C189        C203   1.384       .  A
C189        C588   1.407   1_554  A
C190        C193   1.381       .  A
C190        C583   1.404       .  A
C191        C197   1.379       .  A
C191        C584   1.383       .  A
C192        C200   1.381       .  A
C192        C585   1.407       .  A
C193        N194   1.355       .  A
C193        H206   1.082       .  S
N194        C591   1.358       .  A
N194        C232   1.434       .  S
C195        N590   1.358       .  A
C195        H196   1.082       .  S
C197        N198   1.355       .  A
C197        H207   1.082       .  S
N198        C595   1.351       .  A
N198        C331   1.428       .  S
C199        N594   1.351   1_554  A
C199        H205   1.083       .  S
C200        N201   1.355       .  A
C200        H202   1.082       .  S
N201        C599   1.359       .  A
C203        N597   1.359       .  A
C203        H204   1.082       .  S
C208        C210   1.553       .  S
C208        C212   1.553       .  S
C208        C211   1.535       .  S
C208        C281   1.560       .  S
C209        C213   1.551       .  S
C209        C215   1.548       .  S
C209        C214   1.529       .  S
C209        C288   1.553       .  S
C210        C218   1.379       .  A
C210        C213   1.405       .  A
C211        C222   1.381       .  A
C211        C214   1.387       .  A
C212        C226   1.387       .  A
C212        C215   1.402       .  A
C213        C216   1.384       .  A
C214        C220   1.376       .  A
C215        C223   1.380       .  A
C216        N217   1.357       .  A
C216        H229   1.081       .  S
N217        C218   1.358       .  A
N217        C270   1.437       .  S
C218        H219   1.082       .  S
C220        N221   1.355       .  A
C220        H230   1.082       .  S
N221        C222   1.356       .  A
N221        C321   1.431       .  S
C222        H228   1.082       .  S
C223        N224   1.355       .  A
C223        H225   1.082       .  S
N224        C226   1.358       .  A
C226        H227   1.082       .  S
O231        C247   1.270       .  A
O231       Zn237   1.979       .  S
C232        O248   1.275       .  A
C232        O641   1.273       .  A
O233        C642   1.277   1_554  A
O233       Cd240   2.088       .  S
O234        C252   1.267       .  A
O234       Cd243   2.017       .  S
O235        C645   1.276       .  A
O235       Cd239   2.089       .  S
O236        C247   1.270       .  A
O236       Cd239   2.037       .  S
Zn237       O248   2.041       .  S
Zn237       O250   2.025       .  S
Zn237       O242   1.942       .  S
O238        C249   1.273   1_554  A
O238       Cd243   2.067       .  S
Cd239       O241   2.074       .  S
Cd239       O242   1.995       .  S
Cd240       O244   2.089       .  S
Cd240       O253   2.050       .  S
Cd240       O638   2.000   1_554  S
O241        C647   1.276       .  A
O242       Cd636   2.000       .  S
O242       Cd639   1.983       .  S
Cd243       O245   2.060       .  S
Cd243       O638   1.983   1_554  S
O244        C251   1.277       .  A
O245        C628   1.273       .  A
C246        O250   1.274       .  A
C246        O629   1.277       .  A
C247        C272   1.433       .  S
C249        O631   1.276       .  A
C251        N459   1.433       .  S
C251        O637   1.276   1_554  A
C252        O253   1.272       .  A
C252        C269   1.433       .  S
O254        C270   1.277       .  A
O254       Zn260   2.060       .  S
C255        O271   1.274       .  A
C255        O268   1.276       .  A
O256        C269   1.270       .  A
O256       Cd263   2.034       .  S
O257        C275   1.276       .  A
O257       Cd266   2.080       .  S
O258        C272   1.267       .  A
O258       Cd262   2.018       .  S
O259        C270   1.273       .  A
O259       Cd262   2.058       .  S
Zn260       O271   2.019       .  S
Zn260       O273   1.982       .  S
Zn260       O265   1.949       .  S
O261        C272   1.271       .  A
O261       Cd266   2.047       .  S
Cd262       O264   2.081       .  S
Cd262       O265   1.989       .  S
Cd263       O267   2.092       .  S
Cd263       O276   2.086       .  S
Cd263       O265   2.001       .  S
O264        C274   1.274       .  A
O265       Cd266   2.004       .  S
Cd266       O268   2.092       .  S
O267        C274   1.277       .  A
C269        O273   1.270       .  A
C275        O276   1.276       .  A
C277        C278   1.425       .  A
C277        C282   1.420       .  A
C277       Br284   1.943       .  S
C278        C279   1.425       .  A
C279        C280   1.420       .  A
C279       Br286   1.943       .  S
C280        C281   1.425       .  A
C280       Br285   1.942       .  S
C281        C282   1.425       .  A
C282       Br283   1.941       .  S
C287        C288   1.419       .  A
C287        C292   1.419       .  A
C287       Br294   1.940       .  S
C288        C289   1.420       .  A
C289        C290   1.418       .  A
C289       Br296   1.940       .  S
C290        C291   1.425       .  A
C290       Br295   1.938       .  S
C291        C292   1.428       .  A
C292       Br293   1.941       .  S
C297        C298   1.422       .  A
C297        C302   1.420       .  A
C297       Br304   1.941       .  S
C298        C299   1.420       .  A
C299        C300   1.420       .  A
C299       Br306   1.938       .  S
C300        C301   1.425       .  A
C300       Br305   1.940       .  S
C301        C302   1.426       .  A
C302       Br303   1.941       .  S
C307        C308   1.424       .  A
C307        C312   1.422       .  A
C307       Br314   1.938       .  S
C308        C309   1.425       .  A
C309        C310   1.418       .  A
C309       Br316   1.941       .  S
C310        C311   1.423       .  A
C310       Br315   1.939       .  S
C311        C312   1.423       .  A
C312       Br313   1.938       .  S
C317        C318   1.407       .  A
C317        C322   1.408       .  A
C317       Br324   1.926       .  S
C318       C1111   1.406   1_545  A
C318        N875   1.431   1_545  S
C319       C1110   1.406       .  A
C319       C1112   1.403       .  A
C319       Br326   1.926       .  S
C320        C321   1.405       .  A
C320       C1111   1.403   1_545  A
C320       Br325   1.926       .  S
C321        C322   1.407       .  A
C322       Br323   1.925       .  S
C327       C1120   1.406       .  A
C327       C1124   1.404       .  A
C327       Br334   1.924       .  S
C328       C1119   1.406   1_545  A
C328        C725   1.407       .  A
C328        N852   1.431   1_545  S
C329        C330   1.406       .  A
C329        C724   1.407       .  A
C329       Br336   1.924   1_556  S
C330        C727   1.405       .  A
C330       Br335   1.926       .  S
C331        C332   1.405       .  A
C331        C726   1.405       .  A
C332       C1119   1.404   1_545  A
C332       Br333   1.926       .  S
C337        C338   1.422       .  A
C337        C342   1.418       .  A
C337       Br344   1.941       .  S
C338        C339   1.424       .  A
C339        C340   1.417       .  A
C339       Br346   1.941       .  S
C340        C341   1.422       .  A
C340       Br345   1.939       .  S
C341        C342   1.427       .  A
C342       Br343   1.942       .  S
C347        C348   1.427       .  A
C347        C352   1.419       .  A
C347       Br354   1.942       .  S
C348        C349   1.426       .  A
C349        C350   1.417       .  A
C349       Br356   1.940       .  S
C350        C351   1.419       .  A
C350       Br355   1.940       .  S
C351        C352   1.425       .  A
C352       Br353   1.945       .  S
C357        C358   1.407   1_455  A
C357        C362   1.406       .  A
C357      Br1948   1.925       .  S
C358        C359   1.409       .  A
C358       N1621   1.437       .  S
C359        C360   1.410       .  A
C359      Br1950   1.925       .  S
C360        C361   1.408   1_655  A
C360       Br365   1.925       .  S
C361        C362   1.406       .  A
C362       Br363   1.924       .  S
Br364      C1941   1.925       .  S
Br366      C1943   1.925       .  S
C367        C372   1.405   1_556  A
C367        C764   1.407   1_456  A
C367       Br374   1.925       .  S
C368        C763   1.407   1_655  A
C368       C1953   1.407       .  A
C368       N1598   1.432       .  S
C369       C1952   1.407       .  A
C369       C1954   1.407       .  A
C369       Br376   1.924       .  S
C370        C371   1.406       .  A
C370       C1953   1.407   1_455  A
C370       Br375   1.925   1_455  S
C371        C768   1.406       .  A
C372        C767   1.406       .  A
C372       Br373   1.925       .  S
C377        C378   1.424       .  A
C377        C382   1.417       .  A
C377       Br384   1.942       .  S
C378        C379   1.423       .  A
C379        C380   1.419       .  A
C379       Br386   1.938       .  S
C380        C381   1.425       .  A
C380       Br385   1.941       .  S
C381        C382   1.423       .  A
C382       Br383   1.941       .  S
C387        C388   1.425       .  A
C387        C392   1.418       .  A
C387       Br394   1.945       .  S
C388        C389   1.419       .  A
C389        C390   1.418       .  A
C389       Br396   1.938       .  S
C390        C391   1.425       .  A
C390       Br395   1.940       .  S
C391        C392   1.427       .  A
C392       Br393   1.944       .  S
C397        C399   1.538       .  S
C397        C401   1.542       .  S
C397        C400   1.545       .  S
C397        C774   1.556       .  S
C398        C402   1.543       .  S
C398        C404   1.544       .  S
C398        C403   1.548       .  S
C398        C784   1.556       .  S
C399        C407   1.377       .  A
C400        C411   1.380       .  A
C401        C415   1.385       .  A
C402        C405   1.385       .  A
C403        C409   1.379       .  A
C404        C412   1.380       .  A
C405        N406   1.358       .  A
C405        H418   1.083       .  S
N406        C507   1.432       .  S
C407        H408   1.082       .  S
C409        H419   1.082       .  S
N410        C411   1.356       .  A
N410       C2348   1.432   1_556  S
C411        H417   1.082       .  S
C412        N413   1.352       .  A
C412        H414   1.082       .  S
N413        C645   1.434       .  S
C415        H416   1.082       .  S
C420        C422   1.545       .  S
C420        C424   1.540       .  S
C420        C423   1.551       .  S
C420        C787   1.557       .  S
C421        C425   1.542       .  S
C421        C427   1.549       .  S
C421        C426   1.547       .  S
C421        C777   1.557       .  S
C422        C430   1.388       .  A
C422        C425   1.395       .  A
C423        C434   1.381       .  A
C423        C426   1.401       .  A
C424        C438   1.381       .  A
C424        C427   1.403       .  A
C425        C428   1.382       .  A
C426        C432   1.382       .  A
C427        C435   1.390       .  A
C428        N429   1.356       .  A
C428        H441   1.082       .  S
N429        C430   1.358       .  A
N429        C533   1.438       .  S
C430        H431   1.082       .  S
C432        N433   1.355       .  A
C432        H442   1.085       .  S
N433        C434   1.357       .  A
N433       C2338   1.437       .  S
C434        H440   1.079       .  S
C435        N436   1.357       .  A
C435        H437   1.082       .  S
N436        C438   1.350       .  A
N436        C670   1.437       .  S
C438        H439   1.082       .  S
C443        C445   1.536       .  S
C443        C447   1.538       .  S
C443        C446   1.551       .  S
C443        C734   1.555       .  S
C444        C448   1.542       .  S
C444        C450   1.544       .  S
C444        C449   1.544       .  S
C444        C744   1.557       .  S
C445        C453   1.383       .  A
C446        C457   1.380       .  A
C447        C461   1.377       .  A
C448        C451   1.378       .  A
C449        C455   1.378       .  A
C450        C458   1.387       .  A
C451        H464   1.082       .  S
N452        C453   1.353       .  A
N452        C505   1.430       .  S
C453        H454   1.083       .  S
C455        H465   1.082       .  S
N456        C457   1.355       .  A
N456       C1516   1.431       .  S
C457        H463   1.082       .  S
C458        H460   1.082       .  S
N459        C461   1.352   1_554  A
C461        H462   1.083       .  S
C466        C468   1.540       .  S
C466        C470   1.542       .  S
C466        C469   1.546       .  S
C466        C747   1.555       .  S
C467        C471   1.550       .  S
C467        C473   1.539       .  S
C467        C472   1.543       .  S
C467        C737   1.557       .  S
C468        C476   1.378       .  A
C468        C471   1.409       .  A
C469        C480   1.378       .  A
C469        C472   1.399       .  A
C470        C484   1.385       .  A
C470        C473   1.393       .  A
C471        C474   1.390       .  A
C472        C478   1.379       .  A
C473        C481   1.379       .  A
C474        N475   1.356       .  A
C474        H487   1.083       .  S
N475        C476   1.349       .  A
N475        C527   1.435       .  S
C476        H477   1.082       .  S
C478        N479   1.354       .  A
C478        H488   1.082       .  S
N479        C480   1.354       .  A
N479       C1506   1.431       .  S
C480        H486   1.082       .  S
C481        N482   1.355       .  A
C481        H483   1.082       .  S
N482        C484   1.358       .  A
N482        C671   1.434       .  S
C484        H485   1.082       .  S
O489        C505   1.274       .  A
O489      Zn2079   2.033       .  S
C490       O1298   1.271       .  A
C490        O503   1.272       .  A
C490        C513   1.445       .  S
O491      Cd1290   2.088       .  S
O492        C510   1.277       .  A
O492       Cd501   2.091       .  S
O493        C507   1.272       .  A
O493       Cd497   2.069       .  S
O494      Cd1289   2.057       .  S
Zn495      O2073   2.033   1_455  S
Zn495       O506   1.971       .  S
Zn495       O508   2.039       .  S
Zn495      O1292   1.941       .  S
O496       C1695   1.276       .  A
O496       Cd501   2.085   1_655  S
Cd497      O1286   2.057   1_545  S
Cd497       O499   2.013       .  S
Cd497      O1688   1.989       .  S
Cd498      O1283   2.088   1_545  S
Cd498       O502   2.036       .  S
Cd498       O511   2.077       .  S
O499       C2093   1.268       .  A
O500      Zn1287   1.941   1_545  S
O500      Cd1685   1.989   1_456  S
O500       Cd501   2.002       .  S
Cd501       O503   2.044       .  S
O502        C509   1.271       .  A
C504        N544   1.438       .  S
C504        O508   1.275       .  A
O506       C1282   1.271       .  A
C507       O1684   1.276       .  A
C509       O2083   1.268       .  A
C509        C532   1.441       .  S
C510        N597   1.435   1_556  S
O512        C528   1.274       .  A
O512       Zn518   2.021       .  S
C513       O1321   1.270       .  A
C513        O526   1.272       .  A
O514        C527   1.275       .  A
O514      Cd1313   2.078       .  S
O515       C2117   1.278       .  A
O515       Cd524   2.092   1_655  S
O516        C530   1.275       .  A
O516       Cd520   2.071       .  S
O517        C528   1.272       .  A
O517      Cd1312   2.070       .  S
Zn518       O529   1.964       .  S
Zn518      O2115   2.030   1_455  S
Zn518      O1315   1.940       .  S
O519        C530   1.277       .  A
O519       Cd524   2.097       .  S
Cd520      O1309   2.070   1_545  S
Cd520       O522   2.027       .  S
Cd520       O523   1.996       .  S
Cd521      O1306   2.078   1_545  S
Cd521       O525   2.031       .  S
Cd521       O534   2.089       .  S
Cd521      O2107   1.991       .  S
O522        C532   1.269       .  A
O523      Zn1310   1.940   1_545  S
O523      Cd2105   1.991   1_455  S
O523       Cd524   2.003       .  S
Cd524       O526   2.041       .  S
O525       C2116   1.271       .  A
C527        O531   1.273       .  A
C528        N567   1.431       .  S
O529       C1305   1.270       .  A
C530        N620   1.436       .  S
O531      Zn2102   2.030       .  S
C532       O2109   1.271       .  A
C533       O2099   1.278       .  A
C533        O534   1.276       .  A
C535        C537   1.558       .  S
C535        C539   1.553       .  S
C535        C538   1.532       .  S
C535        C694   1.558       .  S
C536        C540   1.548       .  S
C536        C542   1.537       .  S
C536        C541   1.546       .  S
C536        C704   1.560       .  S
C537        C545   1.387       .  A
C538        C549   1.375       .  A
C539        C553   1.388       .  A
C540        C543   1.382       .  A
C541        C547   1.383       .  A
C542        C550   1.377       .  A
C543        H556   1.082       .  S
N544        C545   1.358       .  A
C545        H546   1.082       .  S
C547        H557   1.082       .  S
N548        C549   1.352       .  A
N548        C767   1.431   1_556  S
C549        H555   1.083       .  S
C550        H552   1.083       .  S
N551        C553   1.360       .  A
N551        C642   1.436       .  S
C553        H554   1.082       .  S
C558        C560   1.551       .  S
C558        C562   1.538       .  S
C558        C561   1.546       .  S
C558        C707   1.560       .  S
C559        C563   1.550       .  S
C559        C565   1.549       .  S
C559        C564   1.534       .  S
C559        C697   1.558       .  S
C560        C568   1.381       .  A
C560        C563   1.407       .  A
C561        C572   1.387       .  A
C561        C564   1.393       .  A
C562        C576   1.376       .  A
C562        C565   1.396       .  A
C563        C566   1.379       .  A
C564        C570   1.375       .  A
C565        C573   1.386       .  A
C566        N567   1.355       .  A
C566        H579   1.082       .  S
N567        C568   1.356       .  A
C568        H569   1.083       .  S
C570        N571   1.352       .  A
C570        H580   1.083       .  S
N571        C572   1.359       .  A
N571        C757   1.435       .  S
C572        H578   1.082       .  S
C573        N574   1.359       .  A
C573        H575   1.082       .  S
N574        C576   1.356       .  A
N574        C651   1.435       .  S
C576        H577   1.083       .  S
C581        C583   1.553       .  S
C581        C585   1.557       .  S
C581        C584   1.522       .  S
C581        C687   1.558       .  S
C582        C586   1.548       .  S
C582        C588   1.550       .  S
C582        C587   1.532       .  S
C582        C674   1.558       .  S
C583        C591   1.380       .  A
C584        C595   1.374       .  A
C585        C599   1.384       .  A
C586        C589   1.381       .  A
C587        C593   1.379       .  A
C588        C596   1.381       .  A
C589        N590   1.355   1_556  A
C589        H602   1.082       .  S
N590        C628   1.434       .  S
C591        H592   1.082       .  S
C593        N594   1.355       .  A
C593        H603   1.082       .  S
N594        C727   1.428       .  S
C595        H601   1.083       .  S
C596        N597   1.355   1_556  A
C596        H598   1.082       .  S
C599        H600   1.082       .  S
C604        C606   1.553       .  S
C604        C608   1.553       .  S
C604        C607   1.535       .  S
C604        C677   1.560       .  S
C605        C609   1.551       .  S
C605        C611   1.548       .  S
C605        C610   1.529       .  S
C605        C684   1.553       .  S
C606        C614   1.379       .  A
C606        C609   1.405       .  A
C607        C618   1.381       .  A
C607        C610   1.387       .  A
C608        C622   1.387       .  A
C608        C611   1.402       .  A
C609        C612   1.384       .  A
C610        C616   1.376       .  A
C611        C619   1.380       .  A
C612        N613   1.357       .  A
C612        H625   1.081       .  S
N613        C614   1.358       .  A
N613        C666   1.437       .  S
C614        H615   1.082       .  S
C616        N617   1.355       .  A
C616        H626   1.082       .  S
N617        C618   1.356       .  A
N617        C717   1.431       .  S
C618        H624   1.082       .  S
C619        N620   1.355       .  A
C619        H621   1.082       .  S
N620        C622   1.358       .  A
C622        H623   1.082       .  S
O627        C643   1.270       .  A
O627       Zn633   1.979       .  S
C628        O644   1.275   1_554  A
O629       Cd636   2.088       .  S
O630        C648   1.267       .  A
O630       Cd639   2.017       .  S
O631       Cd635   2.089       .  S
O632        C643   1.270       .  A
O632       Cd635   2.037       .  S
Zn633       O644   2.041       .  S
Zn633       O646   2.025       .  S
Zn633       O638   1.942       .  S
O634        C645   1.273       .  A
O634       Cd639   2.067       .  S
Cd635       O637   2.074       .  S
Cd635       O638   1.995       .  S
Cd636       O640   2.089       .  S
Cd636       O649   2.050       .  S
Cd639       O641   2.060       .  S
O640        C647   1.277       .  A
C642        O646   1.274       .  A
C643        C668   1.433       .  S
C648        O649   1.272       .  A
C648        C665   1.433       .  S
O650        C666   1.277       .  A
O650       Zn656   2.060       .  S
C651        O667   1.274       .  A
C651        O664   1.276       .  A
O652        C665   1.270       .  A
O652       Cd659   2.034       .  S
O653        C671   1.276       .  A
O653       Cd662   2.080       .  S
O654        C668   1.267       .  A
O654       Cd658   2.018       .  S
O655        C666   1.273       .  A
O655       Cd658   2.058       .  S
Zn656       O667   2.019       .  S
Zn656       O669   1.982       .  S
Zn656       O661   1.949       .  S
O657        C668   1.271       .  A
O657       Cd662   2.047       .  S
Cd658       O660   2.081       .  S
Cd658       O661   1.989       .  S
Cd659       O663   2.092       .  S
Cd659       O672   2.086       .  S
Cd659       O661   2.001       .  S
O660        C670   1.274       .  A
O661       Cd662   2.004       .  S
Cd662       O664   2.092       .  S
O663        C670   1.277       .  A
C665        O669   1.270       .  A
C671        O672   1.276       .  A
C673        C674   1.425       .  A
C673        C678   1.420       .  A
C673       Br680   1.943       .  S
C674        C675   1.425       .  A
C675        C676   1.420       .  A
C675       Br682   1.943       .  S
C676        C677   1.425       .  A
C676       Br681   1.942       .  S
C677        C678   1.425       .  A
C678       Br679   1.941       .  S
C683        C684   1.419       .  A
C683        C688   1.419       .  A
C683       Br690   1.940       .  S
C684        C685   1.420       .  A
C685        C686   1.418       .  A
C685       Br692   1.940       .  S
C686        C687   1.425       .  A
C686       Br691   1.938       .  S
C687        C688   1.428       .  A
C688       Br689   1.941       .  S
C693        C694   1.422       .  A
C693        C698   1.420       .  A
C693       Br700   1.941       .  S
C694        C695   1.420       .  A
C695        C696   1.420       .  A
C695       Br702   1.938       .  S
C696        C697   1.425       .  A
C696       Br701   1.940       .  S
C697        C698   1.426       .  A
C698       Br699   1.941       .  S
C703        C704   1.424       .  A
C703        C708   1.422       .  A
C703       Br710   1.938       .  S
C704        C705   1.425       .  A
C705        C706   1.418       .  A
C705       Br712   1.941       .  S
C706        C707   1.423       .  A
C706       Br711   1.939       .  S
C707        C708   1.423       .  A
C708       Br709   1.938       .  S
C713        C714   1.407       .  A
C713        C718   1.408       .  A
C713       Br720   1.926       .  S
C714       C1507   1.406   1_545  A
C714       N1271   1.431   1_545  S
C715       C1506   1.406       .  A
C715       C1508   1.403       .  A
C715       Br722   1.926       .  S
C716       C1507   1.403   1_545  A
C716        C717   1.405       .  A
C716       Br721   1.926       .  S
C717        C718   1.407       .  A
C718       Br719   1.925       .  S
C723       C1516   1.406       .  A
C723       C1520   1.404       .  A
C723       Br730   1.924       .  S
C724       C1515   1.406   1_545  A
C724       N1248   1.431   1_545  S
C725        C726   1.406       .  A
C725       Br732   1.924       .  S
C726       Br731   1.926       .  S
C727        C728   1.405       .  A
C728       C1515   1.404   1_545  A
C728       Br729   1.926   1_556  S
C733        C734   1.422       .  A
C733        C738   1.418       .  A
C733       Br740   1.941       .  S
C734        C735   1.424       .  A
C735        C736   1.417       .  A
C735       Br742   1.941       .  S
C736        C737   1.422       .  A
C736       Br741   1.939       .  S
C737        C738   1.427       .  A
C738       Br739   1.942       .  S
C743        C744   1.427       .  A
C743        C748   1.419       .  A
C743       Br750   1.942       .  S
C744        C745   1.426       .  A
C745        C746   1.417       .  A
C745       Br752   1.940       .  S
C746        C747   1.419       .  A
C746       Br751   1.940       .  S
C747        C748   1.425       .  A
C748       Br749   1.945       .  S
C753        C754   1.407   1_455  A
C753        C758   1.406       .  A
C753      Br2344   1.925       .  S
C754        C755   1.409       .  A
C754       N2017   1.437       .  S
C755        C756   1.410       .  A
C755      Br2346   1.925       .  S
C756        C757   1.408   1_655  A
C756       Br761   1.925       .  S
C757        C758   1.406       .  A
C758       Br759   1.924       .  S
Br760      C2337   1.925       .  S
Br762      C2339   1.925       .  S
C763        C768   1.405       .  A
C763       Br770   1.925       .  S
C764       C2349   1.407       .  A
C764       N1994   1.432   1_554  S
C765       C2348   1.407       .  A
C765       C2350   1.407       .  A
C765       Br772   1.924       .  S
C766       C2349   1.407   1_455  A
C766        C767   1.406       .  A
C766       Br771   1.925   1_455  S
C768       Br769   1.925       .  S
C773        C774   1.424       .  A
C773        C778   1.417       .  A
C773       Br780   1.942       .  S
C774        C775   1.423       .  A
C775        C776   1.419       .  A
C775       Br782   1.938       .  S
C776        C777   1.425       .  A
C776       Br781   1.941       .  S
C777        C778   1.423       .  A
C778       Br779   1.941       .  S
C783        C784   1.425       .  A
C783        C788   1.418       .  A
C783       Br790   1.945       .  S
C784        C785   1.419       .  A
C785        C786   1.418       .  A
C785       Br792   1.938       .  S
C786        C787   1.425       .  A
C786       Br791   1.940       .  S
C787        C788   1.427       .  A
C788       Br789   1.944       .  S
C793        C795   1.538       .  S
C793        C797   1.542       .  S
C793        C796   1.545       .  S
C793       C1170   1.556       .  S
C794        C798   1.543       .  S
C794        C800   1.544       .  S
C794        C799   1.548       .  S
C794       C1180   1.556       .  S
C795        C803   1.377       .  A
C795       C1194   1.396       .  A
C796        C807   1.380       .  A
C796       C1195   1.401       .  A
C797        C811   1.385       .  A
C797       C1196   1.405       .  A
C798       C1191   1.396   1_554  A
C798        C801   1.385       .  A
C799       C1192   1.401   1_554  A
C799        C805   1.379       .  A
C800       C1193   1.405   1_554  A
C800        C808   1.380       .  A
C801        N802   1.358   1_554  A
C801        H814   1.083       .  S
N802       C1199   1.353       .  A
N802        C903   1.432       .  S
C803       N1198   1.353       .  A
C803        H804   1.082       .  S
C805       N1202   1.354   1_554  A
C805        H815   1.082       .  S
N806       C1201   1.354       .  A
N806        C807   1.356       .  A
N806       C2744   1.432       .  S
C807        H813   1.082       .  S
C808        N809   1.352   1_554  A
C808        H810   1.082       .  S
N809       C1207   1.354       .  A
N809       C1041   1.434       .  S
C811       N1205   1.354       .  A
C811        H812   1.082       .  S
C816        C818   1.545       .  S
C816        C820   1.540       .  S
C816        C819   1.551       .  S
C816       C1183   1.557       .  S
C817        C821   1.542       .  S
C817        C823   1.549       .  S
C817        C822   1.547       .  S
C817       C1173   1.557       .  S
C818        C826   1.388       .  A
C818        C821   1.395       .  A
C819        C830   1.381       .  A
C819        C822   1.401       .  A
C820        C834   1.381       .  A
C820        C823   1.403       .  A
C821        C824   1.382       .  A
C822        C828   1.382       .  A
C823        C831   1.390       .  A
C824        N825   1.356       .  A
C824        H837   1.082       .  S
N825        C826   1.358       .  A
N825        C929   1.438       .  S
C826        H827   1.082       .  S
C828        N829   1.355       .  A
C828        H838   1.085       .  S
N829        C830   1.357       .  A
N829       C2734   1.437       .  S
C830        H836   1.079       .  S
C831        N832   1.357       .  A
C831        H833   1.082       .  S
N832        C834   1.350       .  A
N832       C1066   1.437       .  S
C834        H835   1.082       .  S
C839        C841   1.536       .  S
C839        C843   1.538       .  S
C839        C842   1.551       .  S
C839       C1130   1.555       .  S
C840        C844   1.542       .  S
C840        C846   1.544       .  S
C840        C845   1.544       .  S
C840       C1140   1.557       .  S
C841        C849   1.383       .  A
C841       C1240   1.398       .  A
C842        C853   1.380       .  A
C842       C1241   1.403       .  A
C843        C857   1.377       .  A
C843       C1242   1.398       .  A
C844       C1237   1.398   1_554  A
C844        C847   1.378       .  A
C845       C1238   1.403   1_554  A
C845        C851   1.378       .  A
C846       C1239   1.398   1_554  A
C846        C854   1.387       .  A
C847       N1244   1.353   1_554  A
C847        H860   1.082       .  S
N848       C1243   1.353       .  A
N848        C849   1.353       .  A
N848        C901   1.430       .  S
C849        H850   1.083       .  S
C851       N1248   1.354   1_554  A
C851        H861   1.082       .  S
N852       C1247   1.354       .  A
N852        C853   1.355       .  A
C853        H859   1.082       .  S
C854       N1251   1.358       .  A
C854        H856   1.082       .  S
N855       C1250   1.358       .  A
N855        C857   1.352       .  A
N855       C1439   1.433       .  S
C857        H858   1.083       .  S
C862        C864   1.540       .  S
C862        C866   1.542       .  S
C862        C865   1.546       .  S
C862       C1143   1.555       .  S
C863        C867   1.550       .  S
C863        C869   1.539       .  S
C863        C868   1.543       .  S
C863       C1133   1.557       .  S
C864        C872   1.378       .  A
C864        C867   1.409       .  A
C865        C876   1.378       .  A
C865        C868   1.399       .  A
C866        C880   1.385       .  A
C866        C869   1.393       .  A
C867        C870   1.390       .  A
C868        C874   1.379       .  A
C869        C877   1.379       .  A
C870        N871   1.356       .  A
C870        H883   1.083       .  S
N871        C872   1.349       .  A
N871        C923   1.435       .  S
C872        H873   1.082       .  S
C874        N875   1.354       .  A
C874        H884   1.082       .  S
N875        C876   1.354       .  A
C876        H882   1.082       .  S
C877        N878   1.355       .  A
C877        H879   1.082       .  S
N878        C880   1.358       .  A
N878       C1067   1.434       .  S
C880        H881   1.082       .  S
O885        C901   1.274       .  A
O885      Zn2475   2.033       .  S
C886        O899   1.272       .  A
C886        C909   1.445       .  S
O887       C1296   1.276   1_554  A
O888        C906   1.277       .  A
O888       Cd897   2.091       .  S
O889        C903   1.272   1_554  A
O889       Cd893   2.069       .  S
O890       C1297   1.272   1_554  A
Zn891      O2469   2.033   1_455  S
Zn891       O902   1.971   1_565  S
Zn891       O904   2.039       .  S
O892       C2883   1.276       .  A
O892       Cd897   2.085   1_655  S
Cd893       O895   2.013       .  S
Cd893      O2876   1.989   1_554  S
Cd894       O898   2.036       .  S
Cd894       O907   2.077       .  S
Cd894      O1292   1.994   1_554  S
O895       C2489   1.268       .  A
O896      Cd2873   1.989   1_455  S
O896      Cd1290   1.994       .  S
O896       Cd897   2.002       .  S
Cd897       O899   2.044       .  S
O898        C905   1.271       .  A
C900        N940   1.438       .  S
C900       O1283   1.276       .  A
C900        O904   1.275       .  A
C901       O1286   1.272       .  A
C903       O2872   1.276       .  A
C905       O2479   1.268       .  A
C905        C928   1.441       .  S
C906        N993   1.435       .  S
C906       O1303   1.276       .  A
O907       C1302   1.276   1_554  A
O908        C924   1.274       .  A
O908       Zn914   2.021       .  S
C909        O922   1.272       .  A
O910        C923   1.275       .  A
O911       C2513   1.278       .  A
O911       Cd920   2.092   1_655  S
O912        C926   1.275       .  A
O912       Cd916   2.071       .  S
O913        C924   1.272       .  A
Zn914       O925   1.964   1_565  S
Zn914      O2511   2.030   1_455  S
O915        C926   1.277       .  A
O915       Cd920   2.097       .  S
Cd916       O918   2.027       .  S
Cd916       O919   1.996       .  S
Cd917       O921   2.031       .  S
Cd917       O930   2.089       .  S
Cd917      O2503   1.991       .  S
O918        C928   1.269       .  A
O919      Cd2501   1.991   1_455  S
O919       Cd920   2.003       .  S
Cd920       O922   2.041       .  S
O921       C2512   1.271       .  A
C923        O927   1.273       .  A
C924        N963   1.431       .  S
C926       N1016   1.436       .  S
O927      Zn2498   2.030       .  S
C928       O2505   1.271       .  A
C929       O2495   1.278       .  A
C929        O930   1.276       .  A
C931        C933   1.558       .  S
C931        C935   1.553       .  S
C931        C934   1.532       .  S
C931       C1090   1.558       .  S
C932        C936   1.548       .  S
C932        C938   1.537       .  S
C932        C937   1.546       .  S
C932       C1100   1.560       .  S
C933        C941   1.387       .  A
C933       C1332   1.405       .  A
C934        C945   1.375       .  A
C934       C1333   1.395       .  A
C935        C949   1.388       .  A
C935       C1334   1.397       .  A
C936       C1329   1.405   1_554  A
C936        C939   1.382       .  A
C937       C1330   1.395   1_554  A
C937        C943   1.383       .  A
C938       C1331   1.397   1_554  A
C938        C946   1.377       .  A
C939       N1336   1.356   1_554  A
C939        H952   1.082       .  S
N940       C1335   1.356       .  A
N940        C941   1.358       .  A
C941        H942   1.082       .  S
C943       N1340   1.357   1_554  A
C943        H953   1.082       .  S
N944       C1339   1.357       .  A
N944        C945   1.352       .  A
N944       C1163   1.431       .  S
C945        H951   1.083       .  S
C946       N1343   1.354   1_554  A
C946        H948   1.083       .  S
N947       C1342   1.354       .  A
N947        C949   1.360       .  A
N947       C1038   1.436       .  S
C949        H950   1.082       .  S
C954        C956   1.551       .  S
C954        C958   1.538       .  S
C954        C957   1.546       .  S
C954       C1103   1.560       .  S
C955        C959   1.550       .  S
C955        C961   1.549       .  S
C955        C960   1.534       .  S
C955       C1093   1.558       .  S
C956        C964   1.381       .  A
C956        C959   1.407       .  A
C957        C968   1.387       .  A
C957        C960   1.393       .  A
C958        C972   1.376       .  A
C958        C961   1.396       .  A
C959        C962   1.379       .  A
C960        C966   1.375       .  A
C961        C969   1.386       .  A
C962        N963   1.355       .  A
C962        H975   1.082       .  S
N963        C964   1.356       .  A
C964        H965   1.083       .  S
C966        N967   1.352       .  A
C966        H976   1.083       .  S
N967        C968   1.359       .  A
N967       C1153   1.435       .  S
C968        H974   1.082       .  S
C969        N970   1.359       .  A
C969        H971   1.082       .  S
N970        C972   1.356       .  A
N970       C1047   1.435       .  S
C972        H973   1.083       .  S
C977        C979   1.553       .  S
C977        C981   1.557       .  S
C977        C980   1.522       .  S
C977       C1083   1.558       .  S
C978        C982   1.548       .  S
C978        C984   1.550       .  S
C978        C983   1.532       .  S
C978       C1070   1.558       .  S
C979        C987   1.380       .  A
C979       C1378   1.404   1_554  A
C980        C991   1.374       .  A
C980       C1379   1.383   1_554  A
C981        C995   1.384       .  A
C981       C1380   1.407   1_554  A
C982       C1375   1.404       .  A
C982        C985   1.381       .  A
C983       C1376   1.383       .  A
C983        C989   1.379       .  A
C984       C1377   1.407       .  A
C984        C992   1.381       .  A
C985        N986   1.355       .  A
C985        H998   1.082       .  S
N986       C1383   1.358       .  A
N986       C1024   1.434       .  S
C987       N1382   1.358       .  A
C987        H988   1.082       .  S
C989        N990   1.355       .  A
C989        H999   1.082       .  S
N990       C1387   1.351       .  A
N990       C1123   1.428       .  S
C991       N1386   1.351   1_554  A
C991        H997   1.083       .  S
C992        N993   1.355       .  A
C992        H994   1.082       .  S
N993       C1391   1.359       .  A
C995       N1389   1.359       .  A
C995        H996   1.082       .  S
C1000      C1002   1.553       .  S
C1000      C1004   1.553       .  S
C1000      C1003   1.535       .  S
C1000      C1073   1.560       .  S
C1001      C1005   1.551       .  S
C1001      C1007   1.548       .  S
C1001      C1006   1.529       .  S
C1001      C1080   1.553       .  S
C1002      C1010   1.379       .  A
C1002      C1005   1.405       .  A
C1003      C1014   1.381       .  A
C1003      C1006   1.387       .  A
C1004      C1018   1.387       .  A
C1004      C1007   1.402       .  A
C1005      C1008   1.384       .  A
C1006      C1012   1.376       .  A
C1007      C1015   1.380       .  A
C1008      N1009   1.357       .  A
C1008      H1021   1.081       .  S
N1009      C1010   1.358       .  A
N1009      C1062   1.437       .  S
C1010      H1011   1.082       .  S
C1012      N1013   1.355       .  A
C1012      H1022   1.082       .  S
N1013      C1014   1.356       .  A
N1013      C1113   1.431       .  S
C1014      H1020   1.082       .  S
C1015      N1016   1.355       .  A
C1015      H1017   1.082       .  S
N1016      C1018   1.358       .  A
C1018      H1019   1.082       .  S
O1023      C1039   1.270       .  A
O1023     Zn1029   1.979       .  S
C1024      O1040   1.275       .  A
C1024      O1433   1.273       .  A
O1025      C1434   1.277   1_554  A
O1025     Cd1032   2.088       .  S
O1026      C1044   1.267       .  A
O1026     Cd1035   2.017       .  S
O1027      C1437   1.276       .  A
O1027     Cd1031   2.089       .  S
O1028      C1039   1.270       .  A
O1028     Cd1031   2.037       .  S
Zn1029     O1040   2.041       .  S
Zn1029     O1042   2.025       .  S
Zn1029     O1034   1.942       .  S
O1030      C1041   1.273   1_554  A
O1030     Cd1035   2.067       .  S
Cd1031     O1033   2.074       .  S
Cd1031     O1034   1.995       .  S
Cd1032     O1036   2.089       .  S
Cd1032     O1045   2.050       .  S
Cd1032     O1430   2.000   1_554  S
O1033      C1439   1.276       .  A
O1034     Cd1428   2.000       .  S
O1034     Cd1431   1.983       .  S
Cd1035     O1037   2.060       .  S
Cd1035     O1430   1.983   1_554  S
O1036      C1043   1.277       .  A
O1037      C1420   1.273       .  A
C1038      O1421   1.277       .  A
C1038      O1042   1.274       .  A
C1039      C1064   1.433       .  S
C1041      O1423   1.276       .  A
C1043      N1251   1.433       .  S
C1043      O1429   1.276   1_554  A
C1044      O1045   1.272       .  A
C1044      C1061   1.433       .  S
O1046      C1062   1.277       .  A
O1046     Zn1052   2.060       .  S
C1047      O1063   1.274       .  A
C1047      O1060   1.276       .  A
O1048      C1061   1.270       .  A
O1048     Cd1055   2.034       .  S
O1049      C1067   1.276       .  A
O1049     Cd1058   2.080       .  S
O1050      C1064   1.267       .  A
O1050     Cd1054   2.018       .  S
O1051      C1062   1.273       .  A
O1051     Cd1054   2.058       .  S
Zn1052     O1063   2.019       .  S
Zn1052     O1065   1.982       .  S
Zn1052     O1057   1.949       .  S
O1053      C1064   1.271       .  A
O1053     Cd1058   2.047       .  S
Cd1054     O1056   2.081       .  S
Cd1054     O1057   1.989       .  S
Cd1055     O1059   2.092       .  S
Cd1055     O1068   2.086       .  S
Cd1055     O1057   2.001       .  S
O1056      C1066   1.274       .  A
O1057     Cd1058   2.004       .  S
Cd1058     O1060   2.092       .  S
O1059      C1066   1.277       .  A
C1061      O1065   1.270       .  A
C1067      O1068   1.276       .  A
C1069      C1070   1.425       .  A
C1069      C1074   1.420       .  A
C1069     Br1076   1.943       .  S
C1070      C1071   1.425       .  A
C1071      C1072   1.420       .  A
C1071     Br1078   1.943       .  S
C1072      C1073   1.425       .  A
C1072     Br1077   1.942       .  S
C1073      C1074   1.425       .  A
C1074     Br1075   1.941       .  S
C1079      C1080   1.419       .  A
C1079      C1084   1.419       .  A
C1079     Br1086   1.940       .  S
C1080      C1081   1.420       .  A
C1081      C1082   1.418       .  A
C1081     Br1088   1.940       .  S
C1082      C1083   1.425       .  A
C1082     Br1087   1.938       .  S
C1083      C1084   1.428       .  A
C1084     Br1085   1.941       .  S
C1089      C1090   1.422       .  A
C1089      C1094   1.420       .  A
C1089     Br1096   1.941       .  S
C1090      C1091   1.420       .  A
C1091      C1092   1.420       .  A
C1091     Br1098   1.938       .  S
C1092      C1093   1.425       .  A
C1092     Br1097   1.940       .  S
C1093      C1094   1.426       .  A
C1094     Br1095   1.941       .  S
C1099      C1100   1.424       .  A
C1099      C1104   1.422       .  A
C1099     Br1106   1.938       .  S
C1100      C1101   1.425       .  A
C1101      C1102   1.418       .  A
C1101     Br1108   1.941       .  S
C1102      C1103   1.423       .  A
C1102     Br1107   1.939       .  S
C1103      C1104   1.423       .  A
C1104     Br1105   1.938       .  S
C1109      C1110   1.407       .  A
C1109      C1114   1.408       .  A
C1109     Br1116   1.926       .  S
C1111     Br1118   1.926       .  S
C1112      C1113   1.405       .  A
C1112     Br1117   1.926       .  S
C1113      C1114   1.407       .  A
C1114     Br1115   1.925       .  S
C1119     Br1126   1.924       .  S
C1120      C1517   1.407       .  A
C1121      C1516   1.407       .  A
C1121      C1122   1.406       .  A
C1121     Br1128   1.924   1_556  S
C1122      C1519   1.405       .  A
C1122     Br1127   1.926       .  S
C1123      C1518   1.405       .  A
C1123      C1124   1.405       .  A
C1124     Br1125   1.926       .  S
C1129      C1130   1.422       .  A
C1129      C1134   1.418       .  A
C1129     Br1136   1.941       .  S
C1130      C1131   1.424       .  A
C1131      C1132   1.417       .  A
C1131     Br1138   1.941       .  S
C1132      C1133   1.422       .  A
C1132     Br1137   1.939       .  S
C1133      C1134   1.427       .  A
C1134     Br1135   1.942       .  S
C1139      C1140   1.427       .  A
C1139      C1144   1.419       .  A
C1139     Br1146   1.942       .  S
C1140      C1141   1.426       .  A
C1141      C1142   1.417       .  A
C1141     Br1148   1.940       .  S
C1142      C1143   1.419       .  A
C1142     Br1147   1.940       .  S
C1143      C1144   1.425       .  A
C1144     Br1145   1.945       .  S
C1149      C1150   1.407   1_455  A
C1149      C1154   1.406       .  A
C1149     Br2740   1.925       .  S
C1150      C1151   1.409       .  A
C1150      N2413   1.437       .  S
C1151      C1152   1.410       .  A
C1151     Br2742   1.925       .  S
C1152      C1153   1.408   1_655  A
C1152     Br1157   1.925       .  S
C1153      C1154   1.406       .  A
C1154     Br1155   1.924       .  S
Br1156     C2733   1.925       .  S
Br1158     C2735   1.925       .  S
C1159      C1556   1.407   1_456  A
C1159      C1164   1.405   1_556  A
C1159     Br1166   1.925       .  S
C1160      C1555   1.407   1_655  A
C1160      C2745   1.407       .  A
C1160      N2390   1.432       .  S
C1161      C2744   1.407       .  A
C1161      C2746   1.407       .  A
C1161     Br1168   1.924       .  S
C1162      C2745   1.407   1_455  A
C1162      C1163   1.406       .  A
C1162     Br1167   1.925   1_455  S
C1163      C1560   1.406       .  A
C1164      C1559   1.406       .  A
C1164     Br1165   1.925       .  S
C1169      C1170   1.424       .  A
C1169      C1174   1.417       .  A
C1169     Br1176   1.942       .  S
C1170      C1171   1.423       .  A
C1171      C1172   1.419       .  A
C1171     Br1178   1.938       .  S
C1172      C1173   1.425       .  A
C1172     Br1177   1.941       .  S
C1173      C1174   1.423       .  A
C1174     Br1175   1.941       .  S
C1179      C1180   1.425       .  A
C1179      C1184   1.418       .  A
C1179     Br1186   1.945       .  S
C1180      C1181   1.419       .  A
C1181      C1182   1.418       .  A
C1181     Br1188   1.938       .  S
C1182      C1183   1.425       .  A
C1182     Br1187   1.940       .  S
C1183      C1184   1.427       .  A
C1184     Br1185   1.944       .  S
C1189      C1191   1.538       .  S
C1189      C1193   1.542       .  S
C1189      C1192   1.545       .  S
C1189      C1566   1.556       .  S
C1190      C1194   1.543       .  S
C1190      C1196   1.544       .  S
C1190      C1195   1.548       .  S
C1190      C1576   1.556       .  S
C1191      C1199   1.377       .  A
C1192      C1203   1.380       .  A
C1193      C1207   1.385       .  A
C1194      C1197   1.385       .  A
C1195      C1201   1.379       .  A
C1196      C1204   1.380       .  A
C1197      N1198   1.358       .  A
C1197      H1210   1.083       .  S
N1198      C1299   1.432       .  S
C1199      H1200   1.082       .  S
C1201      H1211   1.082       .  S
N1202      C1203   1.356       .  A
N1202      C3140   1.432   1_556  S
C1203      H1209   1.082       .  S
C1204      N1205   1.352       .  A
C1204      H1206   1.082       .  S
N1205      C1437   1.434       .  S
C1207      H1208   1.082       .  S
C1212      C1214   1.545       .  S
C1212      C1216   1.540       .  S
C1212      C1215   1.551       .  S
C1212      C1579   1.557       .  S
C1213      C1217   1.542       .  S
C1213      C1219   1.549       .  S
C1213      C1218   1.547       .  S
C1213      C1569   1.557       .  S
C1214      C1222   1.388       .  A
C1214      C1217   1.395       .  A
C1215      C1226   1.381       .  A
C1215      C1218   1.401       .  A
C1216      C1230   1.381       .  A
C1216      C1219   1.403       .  A
C1217      C1220   1.382       .  A
C1218      C1224   1.382       .  A
C1219      C1227   1.390       .  A
C1220      N1221   1.356       .  A
C1220      H1233   1.082       .  S
N1221      C1222   1.358       .  A
N1221      C1325   1.438       .  S
C1222      H1223   1.082       .  S
C1224      N1225   1.355       .  A
C1224      H1234   1.085       .  S
N1225      C1226   1.357       .  A
N1225      C3130   1.437       .  S
C1226      H1232   1.079       .  S
C1227      N1228   1.357       .  A
C1227      H1229   1.082       .  S
N1228      C1230   1.350       .  A
N1228      C1462   1.437       .  S
C1230      H1231   1.082       .  S
C1235      C1237   1.536       .  S
C1235      C1239   1.538       .  S
C1235      C1238   1.551       .  S
C1235      C1526   1.555       .  S
C1236      C1240   1.542       .  S
C1236      C1242   1.544       .  S
C1236      C1241   1.544       .  S
C1236      C1536   1.557       .  S
C1237      C1245   1.383       .  A
C1238      C1249   1.380       .  A
C1239      C1253   1.377       .  A
C1240      C1243   1.378       .  A
C1241      C1247   1.378       .  A
C1242      C1250   1.387       .  A
C1243      H1256   1.082       .  S
N1244      C1245   1.353       .  A
N1244      C1297   1.430       .  S
C1245      H1246   1.083       .  S
C1247      H1257   1.082       .  S
N1248      C1249   1.355       .  A
C1249      H1255   1.082       .  S
C1250      H1252   1.082       .  S
N1251      C1253   1.352   1_554  A
C1253      H1254   1.083       .  S
C1258      C1260   1.540       .  S
C1258      C1262   1.542       .  S
C1258      C1261   1.546       .  S
C1258      C1539   1.555       .  S
C1259      C1263   1.550       .  S
C1259      C1265   1.539       .  S
C1259      C1264   1.543       .  S
C1259      C1529   1.557       .  S
C1260      C1268   1.378       .  A
C1260      C1263   1.409       .  A
C1261      C1272   1.378       .  A
C1261      C1264   1.399       .  A
C1262      C1276   1.385       .  A
C1262      C1265   1.393       .  A
C1263      C1266   1.390       .  A
C1264      C1270   1.379       .  A
C1265      C1273   1.379       .  A
C1266      N1267   1.356       .  A
C1266      H1279   1.083       .  S
N1267      C1268   1.349       .  A
N1267      C1319   1.435       .  S
C1268      H1269   1.082       .  S
C1270      N1271   1.354       .  A
C1270      H1280   1.082       .  S
N1271      C1272   1.354       .  A
C1272      H1278   1.082       .  S
C1273      N1274   1.355       .  A
C1273      H1275   1.082       .  S
N1274      C1276   1.358       .  A
N1274      C1463   1.434       .  S
C1276      H1277   1.082       .  S
O1281      C1297   1.274       .  A
O1281     Zn2871   2.033       .  S
C1282      O1295   1.272       .  A
C1282      C1305   1.445       .  S
O1284      C1302   1.277       .  A
O1284     Cd1293   2.091       .  S
O1285      C1299   1.272       .  A
O1285     Cd1289   2.069       .  S
Zn1287     O2865   2.033   1_455  S
Zn1287     O1298   1.971   1_565  S
Zn1287     O1300   2.039       .  S
O1288      C2487   1.276       .  A
O1288     Cd1293   2.085   1_655  S
Cd1289     O1291   2.013       .  S
Cd1289     O2480   1.989       .  S
Cd1290     O1294   2.036       .  S
Cd1290     O1303   2.077       .  S
O1291      C2885   1.268       .  A
O1292     Cd2477   1.989   1_456  S
O1292     Cd1293   2.002       .  S
Cd1293     O1295   2.044       .  S
O1294      C1301   1.271       .  A
C1296      N1336   1.438       .  S
C1296      O1300   1.275       .  A
C1299      O2476   1.276       .  A
C1301      O2875   1.268       .  A
C1301      C1324   1.441       .  S
C1302      N1389   1.435   1_556  S
O1304      C1320   1.274       .  A
O1304     Zn1310   2.021       .  S
C1305      O1318   1.272       .  A
O1306      C1319   1.275       .  A
O1307      C2909   1.278       .  A
O1307     Cd1316   2.092   1_655  S
O1308      C1322   1.275       .  A
O1308     Cd1312   2.071       .  S
O1309      C1320   1.272       .  A
Zn1310     O1321   1.964   1_565  S
Zn1310     O2907   2.030   1_455  S
O1311      C1322   1.277       .  A
O1311     Cd1316   2.097       .  S
Cd1312     O1314   2.027       .  S
Cd1312     O1315   1.996       .  S
Cd1313     O1317   2.031       .  S
Cd1313     O1326   2.089       .  S
Cd1313     O2899   1.991       .  S
O1314      C1324   1.269       .  A
O1315     Cd2897   1.991   1_455  S
O1315     Cd1316   2.003       .  S
Cd1316     O1318   2.041       .  S
O1317      C2908   1.271       .  A
C1319      O1323   1.273       .  A
C1320      N1359   1.431       .  S
C1322      N1412   1.436       .  S
O1323     Zn2894   2.030       .  S
C1324      O2901   1.271       .  A
C1325      O2891   1.278       .  A
C1325      O1326   1.276       .  A
C1327      C1329   1.558       .  S
C1327      C1331   1.553       .  S
C1327      C1330   1.532       .  S
C1327      C1486   1.558       .  S
C1328      C1332   1.548       .  S
C1328      C1334   1.537       .  S
C1328      C1333   1.546       .  S
C1328      C1496   1.560       .  S
C1329      C1337   1.387       .  A
C1330      C1341   1.375       .  A
C1331      C1345   1.388       .  A
C1332      C1335   1.382       .  A
C1333      C1339   1.383       .  A
C1334      C1342   1.377       .  A
C1335      H1348   1.082       .  S
N1336      C1337   1.358       .  A
C1337      H1338   1.082       .  S
C1339      H1349   1.082       .  S
N1340      C1341   1.352       .  A
N1340      C1559   1.431   1_556  S
C1341      H1347   1.083       .  S
C1342      H1344   1.083       .  S
N1343      C1345   1.360       .  A
N1343      C1434   1.436       .  S
C1345      H1346   1.082       .  S
C1350      C1352   1.551       .  S
C1350      C1354   1.538       .  S
C1350      C1353   1.546       .  S
C1350      C1499   1.560       .  S
C1351      C1355   1.550       .  S
C1351      C1357   1.549       .  S
C1351      C1356   1.534       .  S
C1351      C1489   1.558       .  S
C1352      C1360   1.381       .  A
C1352      C1355   1.407       .  A
C1353      C1364   1.387       .  A
C1353      C1356   1.393       .  A
C1354      C1368   1.376       .  A
C1354      C1357   1.396       .  A
C1355      C1358   1.379       .  A
C1356      C1362   1.375       .  A
C1357      C1365   1.386       .  A
C1358      N1359   1.355       .  A
C1358      H1371   1.082       .  S
N1359      C1360   1.356       .  A
C1360      H1361   1.083       .  S
C1362      N1363   1.352       .  A
C1362      H1372   1.083       .  S
N1363      C1364   1.359       .  A
N1363      C1549   1.435       .  S
C1364      H1370   1.082       .  S
C1365      N1366   1.359       .  A
C1365      H1367   1.082       .  S
N1366      C1368   1.356       .  A
N1366      C1443   1.435       .  S
C1368      H1369   1.083       .  S
C1373      C1375   1.553       .  S
C1373      C1377   1.557       .  S
C1373      C1376   1.522       .  S
C1373      C1479   1.558       .  S
C1374      C1378   1.548       .  S
C1374      C1380   1.550       .  S
C1374      C1379   1.532       .  S
C1374      C1466   1.558       .  S
C1375      C1383   1.380       .  A
C1376      C1387   1.374       .  A
C1377      C1391   1.384       .  A
C1378      C1381   1.381       .  A
C1379      C1385   1.379       .  A
C1380      C1388   1.381       .  A
C1381      N1382   1.355   1_556  A
C1381      H1394   1.082       .  S
N1382      C1420   1.434       .  S
C1383      H1384   1.082       .  S
C1385      N1386   1.355       .  A
C1385      H1395   1.082       .  S
N1386      C1519   1.428       .  S
C1387      H1393   1.083       .  S
C1388      N1389   1.355   1_556  A
C1388      H1390   1.082       .  S
C1391      H1392   1.082       .  S
C1396      C1398   1.553       .  S
C1396      C1400   1.553       .  S
C1396      C1399   1.535       .  S
C1396      C1469   1.560       .  S
C1397      C1401   1.551       .  S
C1397      C1403   1.548       .  S
C1397      C1402   1.529       .  S
C1397      C1476   1.553       .  S
C1398      C1406   1.379       .  A
C1398      C1401   1.405       .  A
C1399      C1410   1.381       .  A
C1399      C1402   1.387       .  A
C1400      C1414   1.387       .  A
C1400      C1403   1.402       .  A
C1401      C1404   1.384       .  A
C1402      C1408   1.376       .  A
C1403      C1411   1.380       .  A
C1404      N1405   1.357       .  A
C1404      H1417   1.081       .  S
N1405      C1406   1.358       .  A
N1405      C1458   1.437       .  S
C1406      H1407   1.082       .  S
C1408      N1409   1.355       .  A
C1408      H1418   1.082       .  S
N1409      C1410   1.356       .  A
N1409      C1509   1.431       .  S
C1410      H1416   1.083       .  S
C1411      N1412   1.355       .  A
C1411      H1413   1.082       .  S
N1412      C1414   1.358       .  A
C1414      H1415   1.082       .  S
O1419      C1435   1.270       .  A
O1419     Zn1425   1.979       .  S
C1420      O1436   1.275   1_554  A
O1421     Cd1428   2.088       .  S
O1422      C1440   1.267       .  A
O1422     Cd1431   2.017       .  S
O1423     Cd1427   2.089       .  S
O1424      C1435   1.270       .  A
O1424     Cd1427   2.037       .  S
Zn1425     O1436   2.041       .  S
Zn1425     O1438   2.025       .  S
Zn1425     O1430   1.942       .  S
O1426      C1437   1.273       .  A
O1426     Cd1431   2.067       .  S
Cd1427     O1429   2.074       .  S
Cd1427     O1430   1.995       .  S
Cd1428     O1432   2.089       .  S
Cd1428     O1441   2.050       .  S
Cd1431     O1433   2.060       .  S
O1432      C1439   1.277       .  A
C1434      O1438   1.274       .  A
C1435      C1460   1.433       .  S
C1440      O1441   1.272       .  A
C1440      C1457   1.433       .  S
O1442      C1458   1.277       .  A
O1442     Zn1448   2.060       .  S
C1443      O1459   1.274       .  A
C1443      O1456   1.276       .  A
O1444      C1457   1.270       .  A
O1444     Cd1451   2.034       .  S
O1445      C1463   1.276       .  A
O1445     Cd1454   2.080       .  S
O1446      C1460   1.267       .  A
O1446     Cd1450   2.018       .  S
O1447      C1458   1.273       .  A
O1447     Cd1450   2.058       .  S
Zn1448     O1459   2.019       .  S
Zn1448     O1461   1.982       .  S
Zn1448     O1453   1.949       .  S
O1449      C1460   1.271       .  A
O1449     Cd1454   2.047       .  S
Cd1450     O1452   2.081       .  S
Cd1450     O1453   1.989       .  S
Cd1451     O1455   2.092       .  S
Cd1451     O1464   2.086       .  S
Cd1451     O1453   2.001       .  S
O1452      C1462   1.274       .  A
O1453     Cd1454   2.004       .  S
Cd1454     O1456   2.092       .  S
O1455      C1462   1.277       .  A
C1457      O1461   1.270       .  A
C1463      O1464   1.276       .  A
C1465      C1466   1.425       .  A
C1465      C1470   1.420       .  A
C1465     Br1472   1.943       .  S
C1466      C1467   1.425       .  A
C1467      C1468   1.420       .  A
C1467     Br1474   1.943       .  S
C1468      C1469   1.425       .  A
C1468     Br1473   1.942       .  S
C1469      C1470   1.425       .  A
C1470     Br1471   1.941       .  S
C1475      C1476   1.419       .  A
C1475      C1480   1.419       .  A
C1475     Br1482   1.940       .  S
C1476      C1477   1.420       .  A
C1477      C1478   1.418       .  A
C1477     Br1484   1.940       .  S
C1478      C1479   1.425       .  A
C1478     Br1483   1.938       .  S
C1479      C1480   1.428       .  A
C1480     Br1481   1.941       .  S
C1485      C1486   1.422       .  A
C1485      C1490   1.420       .  A
C1485     Br1492   1.941       .  S
C1486      C1487   1.420       .  A
C1487      C1488   1.420       .  A
C1487     Br1494   1.938       .  S
C1488      C1489   1.425       .  A
C1488     Br1493   1.940       .  S
C1489      C1490   1.426       .  A
C1490     Br1491   1.941       .  S
C1495      C1496   1.424       .  A
C1495      C1500   1.422       .  A
C1495     Br1502   1.938       .  S
C1496      C1497   1.425       .  A
C1497      C1498   1.418       .  A
C1497     Br1504   1.941       .  S
C1498      C1499   1.423       .  A
C1498     Br1503   1.939       .  S
C1499      C1500   1.423       .  A
C1500     Br1501   1.938       .  S
C1505      C1506   1.407       .  A
C1505      C1510   1.408       .  A
C1505     Br1512   1.926       .  S
C1507     Br1514   1.926       .  S
C1508      C1509   1.405       .  A
C1508     Br1513   1.926       .  S
C1509      C1510   1.407       .  A
C1510     Br1511   1.925       .  S
C1515     Br1522   1.924       .  S
C1517      C1518   1.406       .  A
C1517     Br1524   1.924       .  S
C1518     Br1523   1.926       .  S
C1519      C1520   1.405       .  A
C1520     Br1521   1.926   1_556  S
C1525      C1526   1.422       .  A
C1525      C1530   1.418       .  A
C1525     Br1532   1.941       .  S
C1526      C1527   1.424       .  A
C1527      C1528   1.417       .  A
C1527     Br1534   1.941       .  S
C1528      C1529   1.422       .  A
C1528     Br1533   1.939       .  S
C1529      C1530   1.427       .  A
C1530     Br1531   1.942       .  S
C1535      C1536   1.427       .  A
C1535      C1540   1.419       .  A
C1535     Br1542   1.942       .  S
C1536      C1537   1.426       .  A
C1537      C1538   1.417       .  A
C1537     Br1544   1.940       .  S
C1538      C1539   1.419       .  A
C1538     Br1543   1.940       .  S
C1539      C1540   1.425       .  A
C1540     Br1541   1.945       .  S
C1545      C1546   1.407   1_455  A
C1545      C1550   1.406       .  A
C1545     Br3136   1.925       .  S
C1546      C1547   1.409       .  A
C1546      N2809   1.437       .  S
C1547      C1548   1.410       .  A
C1547     Br3138   1.925       .  S
C1548      C1549   1.408   1_655  A
C1548     Br1553   1.925       .  S
C1549      C1550   1.406       .  A
C1550     Br1551   1.924       .  S
Br1552     C3129   1.925       .  S
Br1554     C3131   1.925       .  S
C1555      C1560   1.405       .  A
C1555     Br1562   1.925       .  S
C1556      C3141   1.407       .  A
C1556      N2786   1.432   1_554  S
C1557      C3140   1.407       .  A
C1557      C3142   1.407       .  A
C1557     Br1564   1.924       .  S
C1558      C3141   1.407   1_455  A
C1558      C1559   1.406       .  A
C1558     Br1563   1.925   1_455  S
C1560     Br1561   1.925       .  S
C1565      C1566   1.424       .  A
C1565      C1570   1.417       .  A
C1565     Br1572   1.942       .  S
C1566      C1567   1.423       .  A
C1567      C1568   1.419       .  A
C1567     Br1574   1.938       .  S
C1568      C1569   1.425       .  A
C1568     Br1573   1.941       .  S
C1569      C1570   1.423       .  A
C1570     Br1571   1.941       .  S
C1575      C1576   1.425       .  A
C1575      C1580   1.418       .  A
C1575     Br1582   1.945       .  S
C1576      C1577   1.419       .  A
C1577      C1578   1.418       .  A
C1577     Br1584   1.938       .  S
C1578      C1579   1.425       .  A
C1578     Br1583   1.940       .  S
C1579      C1580   1.427       .  A
C1580     Br1581   1.944       .  S
C1585      C1587   1.538       .  S
C1585      C1589   1.542       .  S
C1585      C1588   1.545       .  S
C1585      C1962   1.556       .  S
C1586      C1590   1.543       .  S
C1586      C1592   1.544       .  S
C1586      C1591   1.548       .  S
C1586      C1972   1.556       .  S
C1587      C1595   1.377       .  A
C1587      C1986   1.396       .  A
C1588      C1599   1.380       .  A
C1588      C1987   1.401       .  A
C1589      C1603   1.385       .  A
C1589      C1988   1.405       .  A
C1590      C1983   1.396   1_554  A
C1590      C1593   1.385       .  A
C1591      C1984   1.401   1_554  A
C1591      C1597   1.379       .  A
C1592      C1985   1.405   1_554  A
C1592      C1600   1.380       .  A
C1593      N1594   1.358   1_554  A
C1593      H1606   1.083       .  S
N1594      C1991   1.353       .  A
N1594      C1695   1.432       .  S
C1595      N1990   1.353       .  A
C1595      H1596   1.082       .  S
C1597      N1994   1.354   1_554  A
C1597      H1607   1.082       .  S
N1598      C1993   1.354       .  A
N1598      C1599   1.356       .  A
C1599      H1605   1.082       .  S
C1600      N1601   1.352   1_554  A
C1600      H1602   1.082       .  S
N1601      C1999   1.354       .  A
N1601      C1833   1.434       .  S
C1603      N1997   1.354       .  A
C1603      H1604   1.082       .  S
C1608      C1610   1.545       .  S
C1608      C1612   1.540       .  S
C1608      C1611   1.551       .  S
C1608      C1975   1.557       .  S
C1609      C1613   1.542       .  S
C1609      C1615   1.549       .  S
C1609      C1614   1.547       .  S
C1609      C1965   1.557       .  S
C1610      C1618   1.388       .  A
C1610      C1613   1.395       .  A
C1611      C1622   1.381       .  A
C1611      C1614   1.401       .  A
C1612      C1626   1.381       .  A
C1612      C1615   1.403       .  A
C1613      C1616   1.382       .  A
C1614      C1620   1.382       .  A
C1615      C1623   1.390       .  A
C1616      N1617   1.356       .  A
C1616      H1629   1.082       .  S
N1617      C1618   1.358       .  A
N1617      C1721   1.438       .  S
C1618      H1619   1.082       .  S
C1620      N1621   1.355       .  A
C1620      H1630   1.085       .  S
N1621      C1622   1.357       .  A
C1622      H1628   1.079       .  S
C1623      N1624   1.357       .  A
C1623      H1625   1.082       .  S
N1624      C1626   1.350       .  A
N1624      C1858   1.437       .  S
C1626      H1627   1.082       .  S
C1631      C1633   1.536       .  S
C1631      C1635   1.538       .  S
C1631      C1634   1.551       .  S
C1631      C1922   1.555       .  S
C1632      C1636   1.542       .  S
C1632      C1638   1.544       .  S
C1632      C1637   1.544       .  S
C1632      C1932   1.557       .  S
C1633      C1641   1.383       .  A
C1633      C2032   1.398       .  A
C1634      C1645   1.380       .  A
C1634      C2033   1.403       .  A
C1635      C1649   1.377       .  A
C1635      C2034   1.398       .  A
C1636      C2029   1.398   1_554  A
C1636      C1639   1.378       .  A
C1637      C2030   1.403   1_554  A
C1637      C1643   1.378       .  A
C1638      C2031   1.398   1_554  A
C1638      C1646   1.387       .  A
C1639      N2036   1.353   1_554  A
C1639      H1652   1.082       .  S
N1640      C2035   1.353       .  A
N1640      C1641   1.353       .  A
N1640      C1693   1.430       .  S
C1641      H1642   1.083       .  S
C1643      N2040   1.354   1_554  A
C1643      H1653   1.082       .  S
N1644      C2039   1.354       .  A
N1644      C1645   1.355       .  A
N1644      C2704   1.431       .  S
C1645      H1651   1.082       .  S
C1646      N2043   1.358       .  A
C1646      H1648   1.082       .  S
N1647      C2042   1.358       .  A
N1647      C1649   1.352       .  A
N1647      C2231   1.433       .  S
C1649      H1650   1.083       .  S
C1654      C1656   1.540       .  S
C1654      C1658   1.542       .  S
C1654      C1657   1.546       .  S
C1654      C1935   1.555       .  S
C1655      C1659   1.550       .  S
C1655      C1661   1.539       .  S
C1655      C1660   1.543       .  S
C1655      C1925   1.557       .  S
C1656      C1664   1.378       .  A
C1656      C1659   1.409       .  A
C1657      C1668   1.378       .  A
C1657      C1660   1.399       .  A
C1658      C1672   1.385       .  A
C1658      C1661   1.393       .  A
C1659      C1662   1.390       .  A
C1660      C1666   1.379       .  A
C1661      C1669   1.379       .  A
C1662      N1663   1.356       .  A
C1662      H1675   1.083       .  S
N1663      C1664   1.349       .  A
N1663      C1715   1.435       .  S
C1664      H1665   1.082       .  S
C1666      N1667   1.354       .  A
C1666      H1676   1.082       .  S
N1667      C1668   1.354       .  A
N1667      C2694   1.431       .  S
C1668      H1674   1.082       .  S
C1669      N1670   1.355       .  A
C1669      H1671   1.082       .  S
N1670      C1672   1.358       .  A
N1670      C1859   1.434       .  S
C1672      H1673   1.083       .  S
O1677      C1693   1.274       .  A
C1678      O2486   1.271       .  A
C1678      O1691   1.272       .  A
C1678      C1701   1.445       .  S
O1679      C2088   1.276   1_554  A
O1679     Cd2478   2.088       .  S
O1680      C1698   1.277       .  A
O1680     Cd1689   2.091       .  S
O1681      C1695   1.272   1_554  A
O1681     Cd1685   2.069       .  S
O1682      C2089   1.272   1_554  A
O1682     Cd2477   2.057       .  S
Zn1683     O1694   1.971       .  S
Zn1683     O1696   2.039       .  S
Zn1683     O2480   1.941       .  S
O1684     Cd1689   2.085       .  S
Cd1685     O2474   2.057   1_545  S
Cd1685     O1687   2.013   1_655  S
Cd1686     O2471   2.088   1_545  S
Cd1686     O1690   2.036       .  S
Cd1686     O1699   2.077       .  S
Cd1686     O2084   1.994   1_554  S
O1688     Zn2475   1.941   1_545  S
O1688     Cd2082   1.994       .  S
O1688     Cd1689   2.002       .  S
Cd1689     O1691   2.044       .  S
O1690      C1697   1.271       .  A
C1692      N1732   1.438       .  S
C1692      O2075   1.276       .  A
C1692      O1696   1.275       .  A
C1693      O2078   1.272       .  A
O1694      C2470   1.271       .  A
C1697      C1720   1.441       .  S
C1698      N1785   1.435       .  S
C1698      O2095   1.276       .  A
O1699      C2094   1.276   1_554  A
O1700      C1716   1.274       .  A
O1700     Zn1706   2.021       .  S
C1701      O2509   1.270       .  A
C1701      O1714   1.272       .  A
O1702      C1715   1.275       .  A
O1702     Cd2501   2.078       .  S
O1703     Cd1712   2.092       .  S
O1704      C1718   1.275       .  A
O1704     Cd1708   2.071       .  S
O1705      C1716   1.272       .  A
O1705     Cd2500   2.070       .  S
Zn1706     O1717   1.964       .  S
Zn1706     O2503   1.940       .  S
O1707      C1718   1.277       .  A
O1707     Cd1712   2.097       .  S
Cd1708     O2497   2.070   1_545  S
Cd1708     O1710   2.027       .  S
Cd1708     O1711   1.996       .  S
Cd1709     O2494   2.078   1_545  S
Cd1709     O1713   2.031   1_655  S
Cd1709     O1722   2.089       .  S
O1710      C1720   1.269       .  A
O1711     Zn2498   1.940   1_545  S
O1711     Cd1712   2.003       .  S
Cd1712     O1714   2.041       .  S
C1715      O1719   1.273       .  A
C1716      N1755   1.431       .  S
O1717      C2493   1.270       .  A
C1718      N1808   1.436       .  S
C1721      O1722   1.276       .  A
C1723      C1725   1.558       .  S
C1723      C1727   1.553       .  S
C1723      C1726   1.532       .  S
C1723      C1882   1.558       .  S
C1724      C1728   1.548       .  S
C1724      C1730   1.537       .  S
C1724      C1729   1.546       .  S
C1724      C1892   1.560       .  S
C1725      C1733   1.387       .  A
C1725      C2124   1.405       .  A
C1726      C1737   1.375       .  A
C1726      C2125   1.395       .  A
C1727      C1741   1.388       .  A
C1727      C2126   1.397       .  A
C1728      C2121   1.405   1_554  A
C1728      C1731   1.382       .  A
C1729      C2122   1.395   1_554  A
C1729      C1735   1.383       .  A
C1730      C2123   1.397   1_554  A
C1730      C1738   1.377       .  A
C1731      N2128   1.356   1_554  A
C1731      H1744   1.082       .  S
N1732      C2127   1.356       .  A
N1732      C1733   1.358       .  A
C1733      H1734   1.082       .  S
C1735      N2132   1.357   1_554  A
C1735      H1745   1.082       .  S
N1736      C2131   1.357       .  A
N1736      C1737   1.352       .  A
N1736      C1955   1.431       .  S
C1737      H1743   1.083       .  S
C1738      N2135   1.354   1_554  A
C1738      H1740   1.083       .  S
N1739      C2134   1.354       .  A
N1739      C1741   1.360       .  A
N1739      C1830   1.436       .  S
C1741      H1742   1.082       .  S
C1746      C1748   1.551       .  S
C1746      C1750   1.538       .  S
C1746      C1749   1.546       .  S
C1746      C1895   1.560       .  S
C1747      C1751   1.550       .  S
C1747      C1753   1.549       .  S
C1747      C1752   1.534       .  S
C1747      C1885   1.558       .  S
C1748      C1756   1.381       .  A
C1748      C1751   1.407       .  A
C1749      C1760   1.387       .  A
C1749      C1752   1.393       .  A
C1750      C1764   1.376       .  A
C1750      C1753   1.396       .  A
C1751      C1754   1.379       .  A
C1752      C1758   1.375       .  A
C1753      C1761   1.386       .  A
C1754      N1755   1.355       .  A
C1754      H1767   1.082       .  S
N1755      C1756   1.356       .  A
C1756      H1757   1.083       .  S
C1758      N1759   1.352       .  A
C1758      H1768   1.083       .  S
N1759      C1760   1.359       .  A
N1759      C1945   1.435       .  S
C1760      H1766   1.082       .  S
C1761      N1762   1.359       .  A
C1761      H1763   1.082       .  S
N1762      C1764   1.356       .  A
N1762      C1839   1.435       .  S
C1764      H1765   1.083       .  S
C1769      C1771   1.553       .  S
C1769      C1773   1.557       .  S
C1769      C1772   1.522       .  S
C1769      C1875   1.558       .  S
C1770      C1774   1.548       .  S
C1770      C1776   1.550       .  S
C1770      C1775   1.532       .  S
C1770      C1862   1.558       .  S
C1771      C1779   1.380       .  A
C1771      C2170   1.404   1_554  A
C1772      C1783   1.374       .  A
C1772      C2171   1.383   1_554  A
C1773      C1787   1.384       .  A
C1773      C2172   1.407   1_554  A
C1774      C2167   1.404       .  A
C1774      C1777   1.381       .  A
C1775      C2168   1.383       .  A
C1775      C1781   1.379       .  A
C1776      C2169   1.407       .  A
C1776      C1784   1.381       .  A
C1777      N1778   1.355       .  A
C1777      H1790   1.082       .  S
N1778      C2175   1.358       .  A
N1778      C1816   1.434       .  S
C1779      N2174   1.358       .  A
C1779      H1780   1.082       .  S
C1781      N1782   1.355       .  A
C1781      H1791   1.082       .  S
N1782      C2179   1.351       .  A
N1782      C1915   1.428       .  S
C1783      N2178   1.351   1_554  A
C1783      H1789   1.083       .  S
C1784      N1785   1.355       .  A
C1784      H1786   1.082       .  S
N1785      C2183   1.359       .  A
C1787      N2181   1.359       .  A
C1787      H1788   1.082       .  S
C1792      C1794   1.553       .  S
C1792      C1796   1.553       .  S
C1792      C1795   1.535       .  S
C1792      C1865   1.560       .  S
C1793      C1797   1.551       .  S
C1793      C1799   1.548       .  S
C1793      C1798   1.529       .  S
C1793      C1872   1.553       .  S
C1794      C1802   1.379       .  A
C1794      C1797   1.405       .  A
C1795      C1806   1.381       .  A
C1795      C1798   1.387       .  A
C1796      C1810   1.387       .  A
C1796      C1799   1.402       .  A
C1797      C1800   1.384       .  A
C1798      C1804   1.376       .  A
C1799      C1807   1.380       .  A
C1800      N1801   1.357       .  A
C1800      H1813   1.081       .  S
N1801      C1802   1.358       .  A
N1801      C1854   1.437       .  S
C1802      H1803   1.082       .  S
C1804      N1805   1.355       .  A
C1804      H1814   1.082       .  S
N1805      C1806   1.356       .  A
N1805      C1905   1.431       .  S
C1806      H1812   1.082       .  S
C1807      N1808   1.355       .  A
C1807      H1809   1.082       .  S
N1808      C1810   1.358       .  A
C1810      H1811   1.082       .  S
O1815      C1831   1.270       .  A
O1815     Zn1821   1.979       .  S
C1816      O1832   1.275       .  A
C1816      O2225   1.273       .  A
O1817      C2226   1.277   1_554  A
O1817     Cd1824   2.088       .  S
O1818      C1836   1.267       .  A
O1818     Cd1827   2.017       .  S
O1819      C2229   1.276       .  A
O1819     Cd1823   2.089       .  S
O1820      C1831   1.270       .  A
O1820     Cd1823   2.037       .  S
Zn1821     O1832   2.041       .  S
Zn1821     O1834   2.025       .  S
Zn1821     O1826   1.942       .  S
O1822      C1833   1.273   1_554  A
O1822     Cd1827   2.067       .  S
Cd1823     O1825   2.074       .  S
Cd1823     O1826   1.995       .  S
Cd1824     O1828   2.089       .  S
Cd1824     O1837   2.050       .  S
Cd1824     O2222   2.000   1_554  S
O1825      C2231   1.276       .  A
O1826     Cd2220   2.000       .  S
O1826     Cd2223   1.983       .  S
Cd1827     O1829   2.060       .  S
Cd1827     O2222   1.983   1_554  S
O1828      C1835   1.277       .  A
O1829      C2212   1.273       .  A
C1830      O2213   1.277       .  A
C1830      O1834   1.274       .  A
C1831      C1856   1.433       .  S
C1833      O2215   1.276       .  A
C1835      N2043   1.433       .  S
C1835      O2221   1.276   1_554  A
C1836      O1837   1.272       .  A
C1836      C1853   1.433       .  S
O1838      C1854   1.277       .  A
O1838     Zn1844   2.060       .  S
C1839      O1855   1.274       .  A
C1839      O1852   1.276       .  A
O1840      C1853   1.270       .  A
O1840     Cd1847   2.034       .  S
O1841      C1859   1.276       .  A
O1841     Cd1850   2.080       .  S
O1842      C1856   1.267       .  A
O1842     Cd1846   2.018       .  S
O1843      C1854   1.273       .  A
O1843     Cd1846   2.058       .  S
Zn1844     O1855   2.019       .  S
Zn1844     O1857   1.982       .  S
Zn1844     O1849   1.949       .  S
O1845      C1856   1.271       .  A
O1845     Cd1850   2.047       .  S
Cd1846     O1848   2.081       .  S
Cd1846     O1849   1.989       .  S
Cd1847     O1851   2.092       .  S
Cd1847     O1860   2.086       .  S
Cd1847     O1849   2.001       .  S
O1848      C1858   1.274       .  A
O1849     Cd1850   2.004       .  S
Cd1850     O1852   2.092       .  S
O1851      C1858   1.277       .  A
C1853      O1857   1.270       .  A
C1859      O1860   1.276       .  A
C1861      C1862   1.425       .  A
C1861      C1866   1.420       .  A
C1861     Br1868   1.943       .  S
C1862      C1863   1.425       .  A
C1863      C1864   1.420       .  A
C1863     Br1870   1.943       .  S
C1864      C1865   1.425       .  A
C1864     Br1869   1.942       .  S
C1865      C1866   1.425       .  A
C1866     Br1867   1.941       .  S
C1871      C1872   1.419       .  A
C1871      C1876   1.419       .  A
C1871     Br1878   1.940       .  S
C1872      C1873   1.420       .  A
C1873      C1874   1.418       .  A
C1873     Br1880   1.940       .  S
C1874      C1875   1.425       .  A
C1874     Br1879   1.938       .  S
C1875      C1876   1.428       .  A
C1876     Br1877   1.941       .  S
C1881      C1882   1.422       .  A
C1881      C1886   1.420       .  A
C1881     Br1888   1.941       .  S
C1882      C1883   1.420       .  A
C1883      C1884   1.420       .  A
C1883     Br1890   1.938       .  S
C1884      C1885   1.425       .  A
C1884     Br1889   1.940       .  S
C1885      C1886   1.426       .  A
C1886     Br1887   1.941       .  S
C1891      C1892   1.424       .  A
C1891      C1896   1.422       .  A
C1891     Br1898   1.938       .  S
C1892      C1893   1.425       .  A
C1893      C1894   1.418       .  A
C1893     Br1900   1.941       .  S
C1894      C1895   1.423       .  A
C1894     Br1899   1.939       .  S
C1895      C1896   1.423       .  A
C1896     Br1897   1.938       .  S
C1901      C1902   1.407       .  A
C1901      C1906   1.408       .  A
C1901     Br1908   1.926       .  S
C1902      C2695   1.406   1_545  A
C1902      N2459   1.431   1_545  S
C1903      C2694   1.406       .  A
C1903      C2696   1.403       .  A
C1903     Br1910   1.926       .  S
C1904      C2695   1.403   1_545  A
C1904      C1905   1.405       .  A
C1904     Br1909   1.926       .  S
C1905      C1906   1.407       .  A
C1906     Br1907   1.925       .  S
C1911      C2704   1.406       .  A
C1911      C2708   1.404       .  A
C1911     Br1918   1.924       .  S
C1912      C2703   1.406   1_545  A
C1912      C2309   1.407       .  A
C1912      N2436   1.431   1_545  S
C1913      C2308   1.407       .  A
C1913      C1914   1.406       .  A
C1913     Br1920   1.924   1_556  S
C1914      C2311   1.405       .  A
C1914     Br1919   1.926       .  S
C1915      C2310   1.405       .  A
C1915      C1916   1.405       .  A
C1916      C2703   1.404   1_545  A
C1916     Br1917   1.926       .  S
C1921      C1922   1.422       .  A
C1921      C1926   1.418       .  A
C1921     Br1928   1.941       .  S
C1922      C1923   1.424       .  A
C1923      C1924   1.417       .  A
C1923     Br1930   1.941       .  S
C1924      C1925   1.422       .  A
C1924     Br1929   1.939       .  S
C1925      C1926   1.427       .  A
C1926     Br1927   1.942       .  S
C1931      C1932   1.427       .  A
C1931      C1936   1.419       .  A
C1931     Br1938   1.942       .  S
C1932      C1933   1.426       .  A
C1933      C1934   1.417       .  A
C1933     Br1940   1.940       .  S
C1934      C1935   1.419       .  A
C1934     Br1939   1.940       .  S
C1935      C1936   1.425       .  A
C1936     Br1937   1.945       .  S
C1941      C1942   1.407       .  A
C1941      C1946   1.406       .  A
C1942      C1943   1.409       .  A
C1943      C1944   1.410       .  A
C1944      C1945   1.408       .  A
C1944     Br1949   1.925       .  S
C1945      C1946   1.406       .  A
C1946     Br1947   1.924       .  S
C1951      C2348   1.407   1_556  A
C1951      C1956   1.405   1_556  A
C1951     Br1958   1.925       .  S
C1952      C2347   1.407       .  A
C1953     Br1960   1.924       .  S
C1954      C1955   1.406       .  A
C1954     Br1959   1.925       .  S
C1955      C2352   1.406       .  A
C1956      C2351   1.406       .  A
C1956     Br1957   1.925       .  S
C1961      C1962   1.424       .  A
C1961      C1966   1.417       .  A
C1961     Br1968   1.942       .  S
C1962      C1963   1.423       .  A
C1963      C1964   1.419       .  A
C1963     Br1970   1.938       .  S
C1964      C1965   1.425       .  A
C1964     Br1969   1.941       .  S
C1965      C1966   1.423       .  A
C1966     Br1967   1.941       .  S
C1971      C1972   1.425       .  A
C1971      C1976   1.418       .  A
C1971     Br1978   1.945       .  S
C1972      C1973   1.419       .  A
C1973      C1974   1.418       .  A
C1973     Br1980   1.938       .  S
C1974      C1975   1.425       .  A
C1974     Br1979   1.940       .  S
C1975      C1976   1.427       .  A
C1976     Br1977   1.944       .  S
C1981      C1983   1.538       .  S
C1981      C1985   1.542       .  S
C1981      C1984   1.545       .  S
C1981      C2358   1.556       .  S
C1982      C1986   1.543       .  S
C1982      C1988   1.544       .  S
C1982      C1987   1.548       .  S
C1982      C2368   1.556       .  S
C1983      C1991   1.377       .  A
C1984      C1995   1.380       .  A
C1985      C1999   1.385       .  A
C1986      C1989   1.385       .  A
C1987      C1993   1.379       .  A
C1988      C1996   1.380       .  A
C1989      N1990   1.358       .  A
C1989      H2002   1.083       .  S
N1990      C2091   1.432       .  S
C1991      H1992   1.082       .  S
C1993      H2003   1.082       .  S
N1994      C1995   1.356       .  A
C1995      H2001   1.082       .  S
C1996      N1997   1.352       .  A
C1996      H1998   1.082       .  S
N1997      C2229   1.434       .  S
C1999      H2000   1.082       .  S
C2004      C2006   1.545       .  S
C2004      C2008   1.540       .  S
C2004      C2007   1.551       .  S
C2004      C2371   1.557       .  S
C2005      C2009   1.542       .  S
C2005      C2011   1.549       .  S
C2005      C2010   1.547       .  S
C2005      C2361   1.557       .  S
C2006      C2014   1.388       .  A
C2006      C2009   1.395       .  A
C2007      C2018   1.381       .  A
C2007      C2010   1.401       .  A
C2008      C2022   1.381       .  A
C2008      C2011   1.403       .  A
C2009      C2012   1.382       .  A
C2010      C2016   1.382       .  A
C2011      C2019   1.390       .  A
C2012      N2013   1.356       .  A
C2012      H2025   1.082       .  S
N2013      C2014   1.358       .  A
N2013      C2117   1.438       .  S
C2014      H2015   1.082       .  S
C2016      N2017   1.355       .  A
C2016      H2026   1.085       .  S
N2017      C2018   1.357       .  A
C2018      H2024   1.079       .  S
C2019      N2020   1.357       .  A
C2019      H2021   1.082       .  S
N2020      C2022   1.350       .  A
N2020      C2254   1.437       .  S
C2022      H2023   1.082       .  S
C2027      C2029   1.536       .  S
C2027      C2031   1.538       .  S
C2027      C2030   1.551       .  S
C2027      C2318   1.555       .  S
C2028      C2032   1.542       .  S
C2028      C2034   1.544       .  S
C2028      C2033   1.544       .  S
C2028      C2328   1.557       .  S
C2029      C2037   1.383       .  A
C2030      C2041   1.380       .  A
C2031      C2045   1.377       .  A
C2032      C2035   1.378       .  A
C2033      C2039   1.378       .  A
C2034      C2042   1.387       .  A
C2035      H2048   1.082       .  S
N2036      C2037   1.353       .  A
N2036      C2089   1.430       .  S
C2037      H2038   1.083       .  S
C2039      H2049   1.082       .  S
N2040      C2041   1.355       .  A
N2040      C3100   1.431       .  S
C2041      H2047   1.082       .  S
C2042      H2044   1.082       .  S
N2043      C2045   1.352   1_554  A
C2045      H2046   1.083       .  S
C2050      C2052   1.540       .  S
C2050      C2054   1.542       .  S
C2050      C2053   1.546       .  S
C2050      C2331   1.555       .  S
C2051      C2055   1.550       .  S
C2051      C2057   1.539       .  S
C2051      C2056   1.543       .  S
C2051      C2321   1.557       .  S
C2052      C2060   1.378       .  A
C2052      C2055   1.409       .  A
C2053      C2064   1.378       .  A
C2053      C2056   1.399       .  A
C2054      C2068   1.385       .  A
C2054      C2057   1.393       .  A
C2055      C2058   1.390       .  A
C2056      C2062   1.379       .  A
C2057      C2065   1.379       .  A
C2058      N2059   1.356       .  A
C2058      H2071   1.083       .  S
N2059      C2060   1.349       .  A
N2059      C2111   1.435       .  S
C2060      H2061   1.082       .  S
C2062      N2063   1.354       .  A
C2062      H2072   1.082       .  S
N2063      C2064   1.354       .  A
N2063      C3090   1.431       .  S
C2064      H2070   1.082       .  S
C2065      N2066   1.355       .  A
C2065      H2067   1.082       .  S
N2066      C2068   1.358       .  A
N2066      C2255   1.434       .  S
C2068      H2069   1.082       .  S
O2073      C2089   1.274       .  A
C2074      O2882   1.271       .  A
C2074      O2087   1.272       .  A
C2074      C2097   1.445       .  S
O2075     Cd2874   2.088       .  S
O2076      C2094   1.277       .  A
O2076     Cd2085   2.091       .  S
O2077      C2091   1.272       .  A
O2077     Cd2081   2.069       .  S
O2078     Cd2873   2.057       .  S
Zn2079     O2090   1.971       .  S
Zn2079     O2092   2.039       .  S
Zn2079     O2876   1.941       .  S
O2080     Cd2085   2.085       .  S
Cd2081     O2870   2.057   1_545  S
Cd2081     O2083   2.013   1_655  S
Cd2082     O2867   2.088   1_545  S
Cd2082     O2086   2.036       .  S
Cd2082     O2095   2.077       .  S
O2084     Zn2871   1.941   1_545  S
O2084     Cd2085   2.002       .  S
Cd2085     O2087   2.044       .  S
O2086      C2093   1.271       .  A
C2088      N2128   1.438       .  S
C2088      O2092   1.275       .  A
O2090      C2866   1.271       .  A
C2093      C2116   1.441       .  S
C2094      N2181   1.435   1_556  S
O2096      C2112   1.274       .  A
O2096     Zn2102   2.021       .  S
C2097      O2905   1.270       .  A
C2097      O2110   1.272       .  A
O2098      C2111   1.275       .  A
O2098     Cd2897   2.078       .  S
O2099     Cd2108   2.092       .  S
O2100      C2114   1.275       .  A
O2100     Cd2104   2.071       .  S
O2101      C2112   1.272       .  A
O2101     Cd2896   2.070       .  S
Zn2102     O2113   1.964       .  S
Zn2102     O2899   1.940       .  S
O2103      C2114   1.277       .  A
O2103     Cd2108   2.097       .  S
Cd2104     O2893   2.070   1_545  S
Cd2104     O2106   2.027       .  S
Cd2104     O2107   1.996       .  S
Cd2105     O2890   2.078   1_545  S
Cd2105     O2109   2.031   1_655  S
Cd2105     O2118   2.089       .  S
O2106      C2116   1.269       .  A
O2107     Zn2894   1.940   1_545  S
O2107     Cd2108   2.003       .  S
Cd2108     O2110   2.041       .  S
C2111      O2115   1.273       .  A
C2112      N2151   1.431       .  S
O2113      C2889   1.270       .  A
C2114      N2204   1.436       .  S
C2117      O2118   1.276       .  A
C2119      C2121   1.558       .  S
C2119      C2123   1.553       .  S
C2119      C2122   1.532       .  S
C2119      C2278   1.558       .  S
C2120      C2124   1.548       .  S
C2120      C2126   1.537       .  S
C2120      C2125   1.546       .  S
C2120      C2288   1.560       .  S
C2121      C2129   1.387       .  A
C2122      C2133   1.375       .  A
C2123      C2137   1.388       .  A
C2124      C2127   1.382       .  A
C2125      C2131   1.383       .  A
C2126      C2134   1.377       .  A
C2127      H2140   1.082       .  S
N2128      C2129   1.358       .  A
C2129      H2130   1.082       .  S
C2131      H2141   1.082       .  S
N2132      C2133   1.352       .  A
N2132      C2351   1.431   1_556  S
C2133      H2139   1.083       .  S
C2134      H2136   1.083       .  S
N2135      C2137   1.360       .  A
N2135      C2226   1.436       .  S
C2137      H2138   1.082       .  S
C2142      C2144   1.551       .  S
C2142      C2146   1.538       .  S
C2142      C2145   1.546       .  S
C2142      C2291   1.560       .  S
C2143      C2147   1.550       .  S
C2143      C2149   1.549       .  S
C2143      C2148   1.534       .  S
C2143      C2281   1.558       .  S
C2144      C2152   1.381       .  A
C2144      C2147   1.407       .  A
C2145      C2156   1.387       .  A
C2145      C2148   1.393       .  A
C2146      C2160   1.376       .  A
C2146      C2149   1.396       .  A
C2147      C2150   1.379       .  A
C2148      C2154   1.375       .  A
C2149      C2157   1.386       .  A
C2150      N2151   1.355       .  A
C2150      H2163   1.082       .  S
N2151      C2152   1.356       .  A
C2152      H2153   1.083       .  S
C2154      N2155   1.352       .  A
C2154      H2164   1.083       .  S
N2155      C2156   1.359       .  A
N2155      C2341   1.435       .  S
C2156      H2162   1.082       .  S
C2157      N2158   1.359       .  A
C2157      H2159   1.082       .  S
N2158      C2160   1.356       .  A
N2158      C2235   1.435       .  S
C2160      H2161   1.083       .  S
C2165      C2167   1.553       .  S
C2165      C2169   1.557       .  S
C2165      C2168   1.522       .  S
C2165      C2271   1.558       .  S
C2166      C2170   1.548       .  S
C2166      C2172   1.550       .  S
C2166      C2171   1.532       .  S
C2166      C2258   1.558       .  S
C2167      C2175   1.380       .  A
C2168      C2179   1.374       .  A
C2169      C2183   1.384       .  A
C2170      C2173   1.381       .  A
C2171      C2177   1.379       .  A
C2172      C2180   1.381       .  A
C2173      N2174   1.355   1_556  A
C2173      H2186   1.082       .  S
N2174      C2212   1.434       .  S
C2175      H2176   1.082       .  S
C2177      N2178   1.355       .  A
C2177      H2187   1.082       .  S
N2178      C2311   1.428       .  S
C2179      H2185   1.083       .  S
C2180      N2181   1.355   1_556  A
C2180      H2182   1.082       .  S
C2183      H2184   1.082       .  S
C2188      C2190   1.553       .  S
C2188      C2192   1.553       .  S
C2188      C2191   1.535       .  S
C2188      C2261   1.560       .  S
C2189      C2193   1.551       .  S
C2189      C2195   1.548       .  S
C2189      C2194   1.529       .  S
C2189      C2268   1.553       .  S
C2190      C2198   1.379       .  A
C2190      C2193   1.405       .  A
C2191      C2202   1.381       .  A
C2191      C2194   1.387       .  A
C2192      C2206   1.387       .  A
C2192      C2195   1.402       .  A
C2193      C2196   1.384       .  A
C2194      C2200   1.376       .  A
C2195      C2203   1.380       .  A
C2196      N2197   1.357       .  A
C2196      H2209   1.081       .  S
N2197      C2198   1.358       .  A
N2197      C2250   1.437       .  S
C2198      H2199   1.082       .  S
C2200      N2201   1.355       .  A
C2200      H2210   1.082       .  S
N2201      C2202   1.356       .  A
N2201      C2301   1.431       .  S
C2202      H2208   1.082       .  S
C2203      N2204   1.355       .  A
C2203      H2205   1.082       .  S
N2204      C2206   1.358       .  A
C2206      H2207   1.082       .  S
O2211      C2227   1.270       .  A
O2211     Zn2217   1.979       .  S
C2212      O2228   1.275   1_554  A
O2213     Cd2220   2.088       .  S
O2214      C2232   1.267       .  A
O2214     Cd2223   2.017       .  S
O2215     Cd2219   2.089       .  S
O2216      C2227   1.270       .  A
O2216     Cd2219   2.037       .  S
Zn2217     O2228   2.041       .  S
Zn2217     O2230   2.025       .  S
Zn2217     O2222   1.942       .  S
O2218      C2229   1.273       .  A
O2218     Cd2223   2.067       .  S
Cd2219     O2221   2.074       .  S
Cd2219     O2222   1.995       .  S
Cd2220     O2224   2.089       .  S
Cd2220     O2233   2.050       .  S
Cd2223     O2225   2.060       .  S
O2224      C2231   1.277       .  A
C2226      O2230   1.274       .  A
C2227      C2252   1.433       .  S
C2232      O2233   1.272       .  A
C2232      C2249   1.433       .  S
O2234      C2250   1.277       .  A
O2234     Zn2240   2.060       .  S
C2235      O2251   1.274       .  A
C2235      O2248   1.276       .  A
O2236      C2249   1.270       .  A
O2236     Cd2243   2.034       .  S
O2237      C2255   1.276       .  A
O2237     Cd2246   2.080       .  S
O2238      C2252   1.267       .  A
O2238     Cd2242   2.018       .  S
O2239      C2250   1.273       .  A
O2239     Cd2242   2.058       .  S
Zn2240     O2251   2.019       .  S
Zn2240     O2253   1.982       .  S
Zn2240     O2245   1.949       .  S
O2241      C2252   1.271       .  A
O2241     Cd2246   2.047       .  S
Cd2242     O2244   2.081       .  S
Cd2242     O2245   1.989       .  S
Cd2243     O2247   2.092       .  S
Cd2243     O2256   2.086       .  S
Cd2243     O2245   2.001       .  S
O2244      C2254   1.274       .  A
O2245     Cd2246   2.004       .  S
Cd2246     O2248   2.092       .  S
O2247      C2254   1.277       .  A
C2249      O2253   1.270       .  A
C2255      O2256   1.276       .  A
C2257      C2258   1.425       .  A
C2257      C2262   1.420       .  A
C2257     Br2264   1.943       .  S
C2258      C2259   1.425       .  A
C2259      C2260   1.420       .  A
C2259     Br2266   1.943       .  S
C2260      C2261   1.425       .  A
C2260     Br2265   1.942       .  S
C2261      C2262   1.425       .  A
C2262     Br2263   1.941       .  S
C2267      C2268   1.419       .  A
C2267      C2272   1.419       .  A
C2267     Br2274   1.940       .  S
C2268      C2269   1.420       .  A
C2269      C2270   1.418       .  A
C2269     Br2276   1.940       .  S
C2270      C2271   1.425       .  A
C2270     Br2275   1.938       .  S
C2271      C2272   1.428       .  A
C2272     Br2273   1.941       .  S
C2277      C2278   1.422       .  A
C2277      C2282   1.420       .  A
C2277     Br2284   1.941       .  S
C2278      C2279   1.420       .  A
C2279      C2280   1.420       .  A
C2279     Br2286   1.938       .  S
C2280      C2281   1.425       .  A
C2280     Br2285   1.940       .  S
C2281      C2282   1.426       .  A
C2282     Br2283   1.941       .  S
C2287      C2288   1.424       .  A
C2287      C2292   1.422       .  A
C2287     Br2294   1.938       .  S
C2288      C2289   1.425       .  A
C2289      C2290   1.418       .  A
C2289     Br2296   1.941       .  S
C2290      C2291   1.423       .  A
C2290     Br2295   1.939       .  S
C2291      C2292   1.423       .  A
C2292     Br2293   1.938       .  S
C2297      C2298   1.407       .  A
C2297      C2302   1.408       .  A
C2297     Br2304   1.926       .  S
C2298      C3091   1.406   1_545  A
C2298      N2855   1.431   1_545  S
C2299      C3090   1.406       .  A
C2299      C3092   1.403       .  A
C2299     Br2306   1.926       .  S
C2300      C3091   1.403   1_545  A
C2300      C2301   1.405       .  A
C2300     Br2305   1.926       .  S
C2301      C2302   1.407       .  A
C2302     Br2303   1.925       .  S
C2307      C3100   1.406       .  A
C2307      C3104   1.404       .  A
C2307     Br2314   1.924       .  S
C2308      C3099   1.406   1_545  A
C2308      N2832   1.431   1_545  S
C2309      C2310   1.406       .  A
C2309     Br2316   1.924       .  S
C2310     Br2315   1.926       .  S
C2311      C2312   1.405       .  A
C2312      C3099   1.404   1_545  A
C2312     Br2313   1.926   1_556  S
C2317      C2318   1.422       .  A
C2317      C2322   1.418       .  A
C2317     Br2324   1.941       .  S
C2318      C2319   1.424       .  A
C2319      C2320   1.417       .  A
C2319     Br2326   1.941       .  S
C2320      C2321   1.422       .  A
C2320     Br2325   1.939       .  S
C2321      C2322   1.427       .  A
C2322     Br2323   1.942       .  S
C2327      C2328   1.427       .  A
C2327      C2332   1.419       .  A
C2327     Br2334   1.942       .  S
C2328      C2329   1.426       .  A
C2329      C2330   1.417       .  A
C2329     Br2336   1.940       .  S
C2330      C2331   1.419       .  A
C2330     Br2335   1.940       .  S
C2331      C2332   1.425       .  A
C2332     Br2333   1.945       .  S
C2337      C2338   1.407       .  A
C2337      C2342   1.406       .  A
C2338      C2339   1.409       .  A
C2339      C2340   1.410       .  A
C2340      C2341   1.408       .  A
C2340     Br2345   1.925       .  S
C2341      C2342   1.406       .  A
C2342     Br2343   1.924       .  S
C2347      C2352   1.405       .  A
C2347     Br2354   1.925       .  S
C2349     Br2356   1.924       .  S
C2350      C2351   1.406       .  A
C2350     Br2355   1.925       .  S
C2352     Br2353   1.925       .  S
C2357      C2358   1.424       .  A
C2357      C2362   1.417       .  A
C2357     Br2364   1.942       .  S
C2358      C2359   1.423       .  A
C2359      C2360   1.419       .  A
C2359     Br2366   1.938       .  S
C2360      C2361   1.425       .  A
C2360     Br2365   1.941       .  S
C2361      C2362   1.423       .  A
C2362     Br2363   1.941       .  S
C2367      C2368   1.425       .  A
C2367      C2372   1.418       .  A
C2367     Br2374   1.945       .  S
C2368      C2369   1.419       .  A
C2369      C2370   1.418       .  A
C2369     Br2376   1.938       .  S
C2370      C2371   1.425       .  A
C2370     Br2375   1.940       .  S
C2371      C2372   1.427       .  A
C2372     Br2373   1.944       .  S
C2377      C2379   1.538       .  S
C2377      C2381   1.542       .  S
C2377      C2380   1.545       .  S
C2377      C2754   1.556       .  S
C2378      C2382   1.543       .  S
C2378      C2384   1.544       .  S
C2378      C2383   1.548       .  S
C2378      C2764   1.556       .  S
C2379      C2387   1.377       .  A
C2379      C2778   1.396       .  A
C2380      C2391   1.380       .  A
C2380      C2779   1.401       .  A
C2381      C2395   1.385       .  A
C2381      C2780   1.405       .  A
C2382      C2775   1.396   1_554  A
C2382      C2385   1.385       .  A
C2383      C2776   1.401   1_554  A
C2383      C2389   1.379       .  A
C2384      C2777   1.405   1_554  A
C2384      C2392   1.380       .  A
C2385      N2386   1.358   1_554  A
C2385      H2398   1.083       .  S
N2386      C2783   1.353       .  A
N2386      C2487   1.432       .  S
C2387      N2782   1.353       .  A
C2387      H2388   1.082       .  S
C2389      N2786   1.354   1_554  A
C2389      H2399   1.082       .  S
N2390      C2785   1.354       .  A
N2390      C2391   1.356       .  A
C2391      H2397   1.082       .  S
C2392      N2393   1.352   1_554  A
C2392      H2394   1.082       .  S
N2393      C2791   1.354       .  A
N2393      C2625   1.434       .  S
C2395      N2789   1.354       .  A
C2395      H2396   1.082       .  S
C2400      C2402   1.545       .  S
C2400      C2404   1.540       .  S
C2400      C2403   1.551       .  S
C2400      C2767   1.557       .  S
C2401      C2405   1.542       .  S
C2401      C2407   1.549       .  S
C2401      C2406   1.547       .  S
C2401      C2757   1.557       .  S
C2402      C2410   1.388       .  A
C2402      C2405   1.395       .  A
C2403      C2414   1.381       .  A
C2403      C2406   1.401       .  A
C2404      C2418   1.381       .  A
C2404      C2407   1.403       .  A
C2405      C2408   1.382       .  A
C2406      C2412   1.382       .  A
C2407      C2415   1.390       .  A
C2408      N2409   1.356       .  A
C2408      H2421   1.082       .  S
N2409      C2410   1.358       .  A
N2409      C2513   1.438       .  S
C2410      H2411   1.082       .  S
C2412      N2413   1.355       .  A
C2412      H2422   1.085       .  S
N2413      C2414   1.357       .  A
C2414      H2420   1.079       .  S
C2415      N2416   1.357       .  A
C2415      H2417   1.082       .  S
N2416      C2418   1.350       .  A
N2416      C2650   1.437       .  S
C2418      H2419   1.082       .  S
C2423      C2425   1.536       .  S
C2423      C2427   1.538       .  S
C2423      C2426   1.551       .  S
C2423      C2714   1.555       .  S
C2424      C2428   1.542       .  S
C2424      C2430   1.544       .  S
C2424      C2429   1.544       .  S
C2424      C2724   1.557       .  S
C2425      C2433   1.383       .  A
C2425      C2824   1.398       .  A
C2426      C2437   1.380       .  A
C2426      C2825   1.403       .  A
C2427      C2441   1.377       .  A
C2427      C2826   1.398       .  A
C2428      C2821   1.398   1_554  A
C2428      C2431   1.378       .  A
C2429      C2822   1.403   1_554  A
C2429      C2435   1.378       .  A
C2430      C2823   1.398   1_554  A
C2430      C2438   1.387       .  A
C2431      N2828   1.353   1_554  A
C2431      H2444   1.082       .  S
N2432      C2827   1.353       .  A
N2432      C2433   1.353       .  A
N2432      C2485   1.430       .  S
C2433      H2434   1.083       .  S
C2435      N2832   1.354   1_554  A
C2435      H2445   1.082       .  S
N2436      C2831   1.354       .  A
N2436      C2437   1.355       .  A
C2437      H2443   1.082       .  S
C2438      N2835   1.358       .  A
C2438      H2440   1.082       .  S
N2439      C2834   1.358       .  A
N2439      C2441   1.352       .  A
N2439      C3023   1.433       .  S
C2441      H2442   1.083       .  S
C2446      C2448   1.540       .  S
C2446      C2450   1.542       .  S
C2446      C2449   1.546       .  S
C2446      C2727   1.555       .  S
C2447      C2451   1.550       .  S
C2447      C2453   1.539       .  S
C2447      C2452   1.543       .  S
C2447      C2717   1.557       .  S
C2448      C2456   1.378       .  A
C2448      C2451   1.409       .  A
C2449      C2460   1.378       .  A
C2449      C2452   1.399       .  A
C2450      C2464   1.385       .  A
C2450      C2453   1.393       .  A
C2451      C2454   1.390       .  A
C2452      C2458   1.379       .  A
C2453      C2461   1.379       .  A
C2454      N2455   1.356       .  A
C2454      H2467   1.083       .  S
N2455      C2456   1.349       .  A
N2455      C2507   1.435       .  S
C2456      H2457   1.082       .  S
C2458      N2459   1.354       .  A
C2458      H2468   1.082       .  S
N2459      C2460   1.354       .  A
C2460      H2466   1.082       .  S
C2461      N2462   1.355       .  A
C2461      H2463   1.082       .  S
N2462      C2464   1.358       .  A
N2462      C2651   1.434       .  S
C2464      H2465   1.082       .  S
O2469      C2485   1.274       .  A
C2470      O2483   1.272       .  A
C2470      C2493   1.445       .  S
O2471      C2880   1.276   1_554  A
O2472      C2490   1.277       .  A
O2472     Cd2481   2.091       .  S
O2473      C2487   1.272   1_554  A
O2473     Cd2477   2.069       .  S
O2474      C2881   1.272   1_554  A
Zn2475     O2486   1.971   1_565  S
Zn2475     O2488   2.039       .  S
O2476     Cd2481   2.085       .  S
Cd2477     O2479   2.013   1_655  S
Cd2478     O2482   2.036       .  S
Cd2478     O2491   2.077       .  S
Cd2478     O2876   1.994   1_554  S
O2480     Cd2874   1.994       .  S
O2480     Cd2481   2.002       .  S
Cd2481     O2483   2.044       .  S
O2482      C2489   1.271       .  A
C2484      N2524   1.438       .  S
C2484      O2867   1.276       .  A
C2484      O2488   1.275       .  A
C2485      O2870   1.272       .  A
C2489      C2512   1.441       .  S
C2490      N2577   1.435       .  S
C2490      O2887   1.276       .  A
O2491      C2886   1.276   1_554  A
O2492      C2508   1.274       .  A
O2492     Zn2498   2.021       .  S
C2493      O2506   1.272       .  A
O2494      C2507   1.275       .  A
O2495     Cd2504   2.092       .  S
O2496      C2510   1.275       .  A
O2496     Cd2500   2.071       .  S
O2497      C2508   1.272       .  A
Zn2498     O2509   1.964   1_565  S
O2499      C2510   1.277       .  A
O2499     Cd2504   2.097       .  S
Cd2500     O2502   2.027       .  S
Cd2500     O2503   1.996       .  S
Cd2501     O2505   2.031   1_655  S
Cd2501     O2514   2.089       .  S
O2502      C2512   1.269       .  A
O2503     Cd2504   2.003       .  S
Cd2504     O2506   2.041       .  S
C2507      O2511   1.273       .  A
C2508      N2547   1.431       .  S
C2510      N2600   1.436       .  S
C2513      O2514   1.276       .  A
C2515      C2517   1.558       .  S
C2515      C2519   1.553       .  S
C2515      C2518   1.532       .  S
C2515      C2674   1.558       .  S
C2516      C2520   1.548       .  S
C2516      C2522   1.537       .  S
C2516      C2521   1.546       .  S
C2516      C2684   1.560       .  S
C2517      C2525   1.387       .  A
C2517      C2916   1.405       .  A
C2518      C2529   1.375       .  A
C2518      C2917   1.395       .  A
C2519      C2533   1.388       .  A
C2519      C2918   1.397       .  A
C2520      C2913   1.405   1_554  A
C2520      C2523   1.382       .  A
C2521      C2914   1.395   1_554  A
C2521      C2527   1.383       .  A
C2522      C2915   1.397   1_554  A
C2522      C2530   1.377       .  A
C2523      N2920   1.356   1_554  A
C2523      H2536   1.082       .  S
N2524      C2919   1.356       .  A
N2524      C2525   1.358       .  A
C2525      H2526   1.082       .  S
C2527      N2924   1.357   1_554  A
C2527      H2537   1.082       .  S
N2528      C2923   1.357       .  A
N2528      C2529   1.352       .  A
N2528      C2747   1.431       .  S
C2529      H2535   1.083       .  S
C2530      N2927   1.354   1_554  A
C2530      H2532   1.083       .  S
N2531      C2926   1.354       .  A
N2531      C2533   1.360       .  A
N2531      C2622   1.436       .  S
C2533      H2534   1.082       .  S
C2538      C2540   1.551       .  S
C2538      C2542   1.538       .  S
C2538      C2541   1.546       .  S
C2538      C2687   1.560       .  S
C2539      C2543   1.550       .  S
C2539      C2545   1.549       .  S
C2539      C2544   1.534       .  S
C2539      C2677   1.558       .  S
C2540      C2548   1.381       .  A
C2540      C2543   1.407       .  A
C2541      C2552   1.387       .  A
C2541      C2544   1.393       .  A
C2542      C2556   1.376       .  A
C2542      C2545   1.396       .  A
C2543      C2546   1.379       .  A
C2544      C2550   1.375       .  A
C2545      C2553   1.386       .  A
C2546      N2547   1.355       .  A
C2546      H2559   1.082       .  S
N2547      C2548   1.356       .  A
C2548      H2549   1.083       .  S
C2550      N2551   1.352       .  A
C2550      H2560   1.083       .  S
N2551      C2552   1.359       .  A
N2551      C2737   1.435       .  S
C2552      H2558   1.082       .  S
C2553      N2554   1.359       .  A
C2553      H2555   1.082       .  S
N2554      C2556   1.356       .  A
N2554      C2631   1.435       .  S
C2556      H2557   1.083       .  S
C2561      C2563   1.553       .  S
C2561      C2565   1.557       .  S
C2561      C2564   1.522       .  S
C2561      C2667   1.558       .  S
C2562      C2566   1.548       .  S
C2562      C2568   1.550       .  S
C2562      C2567   1.532       .  S
C2562      C2654   1.558       .  S
C2563      C2571   1.380       .  A
C2563      C2962   1.404   1_554  A
C2564      C2575   1.374       .  A
C2564      C2963   1.383   1_554  A
C2565      C2579   1.384       .  A
C2565      C2964   1.407   1_554  A
C2566      C2959   1.404       .  A
C2566      C2569   1.381       .  A
C2567      C2960   1.383       .  A
C2567      C2573   1.379       .  A
C2568      C2961   1.407       .  A
C2568      C2576   1.381       .  A
C2569      N2570   1.355       .  A
C2569      H2582   1.082       .  S
N2570      C2967   1.358       .  A
N2570      C2608   1.434       .  S
C2571      N2966   1.358       .  A
C2571      H2572   1.082       .  S
C2573      N2574   1.355       .  A
C2573      H2583   1.082       .  S
N2574      C2971   1.351       .  A
N2574      C2707   1.428       .  S
C2575      N2970   1.351   1_554  A
C2575      H2581   1.083       .  S
C2576      N2577   1.355       .  A
C2576      H2578   1.082       .  S
N2577      C2975   1.359       .  A
C2579      N2973   1.359       .  A
C2579      H2580   1.082       .  S
C2584      C2586   1.553       .  S
C2584      C2588   1.553       .  S
C2584      C2587   1.535       .  S
C2584      C2657   1.560       .  S
C2585      C2589   1.551       .  S
C2585      C2591   1.548       .  S
C2585      C2590   1.529       .  S
C2585      C2664   1.553       .  S
C2586      C2594   1.379       .  A
C2586      C2589   1.405       .  A
C2587      C2598   1.381       .  A
C2587      C2590   1.387       .  A
C2588      C2602   1.387       .  A
C2588      C2591   1.402       .  A
C2589      C2592   1.384       .  A
C2590      C2596   1.376       .  A
C2591      C2599   1.380       .  A
C2592      N2593   1.357       .  A
C2592      H2605   1.081       .  S
N2593      C2594   1.358       .  A
N2593      C2646   1.437       .  S
C2594      H2595   1.082       .  S
C2596      N2597   1.355       .  A
C2596      H2606   1.082       .  S
N2597      C2598   1.356       .  A
N2597      C2697   1.431       .  S
C2598      H2604   1.082       .  S
C2599      N2600   1.355       .  A
C2599      H2601   1.082       .  S
N2600      C2602   1.358       .  A
C2602      H2603   1.082       .  S
O2607      C2623   1.270       .  A
O2607     Zn2613   1.979       .  S
C2608      O2624   1.275       .  A
C2608      O3017   1.273       .  A
O2609      C3018   1.277   1_554  A
O2609     Cd2616   2.088       .  S
O2610      C2628   1.267       .  A
O2610     Cd2619   2.017       .  S
O2611      C3021   1.276       .  A
O2611     Cd2615   2.089       .  S
O2612      C2623   1.270       .  A
O2612     Cd2615   2.037       .  S
Zn2613     O2624   2.041       .  S
Zn2613     O2626   2.025       .  S
Zn2613     O2618   1.942       .  S
O2614      C2625   1.273   1_554  A
O2614     Cd2619   2.067       .  S
Cd2615     O2617   2.074       .  S
Cd2615     O2618   1.995       .  S
Cd2616     O2620   2.089       .  S
Cd2616     O2629   2.050       .  S
Cd2616     O3014   2.000   1_554  S
O2617      C3023   1.276       .  A
O2618     Cd3012   2.000       .  S
O2618     Cd3015   1.983       .  S
Cd2619     O2621   2.060       .  S
Cd2619     O3014   1.983   1_554  S
O2620      C2627   1.277       .  A
O2621      C3004   1.273       .  A
C2622      O3005   1.277       .  A
C2622      O2626   1.274       .  A
C2623      C2648   1.433       .  S
C2625      O3007   1.276       .  A
C2627      N2835   1.433       .  S
C2627      O3013   1.276   1_554  A
C2628      O2629   1.272       .  A
C2628      C2645   1.433       .  S
O2630      C2646   1.277       .  A
O2630     Zn2636   2.060       .  S
C2631      O2647   1.274       .  A
C2631      O2644   1.276       .  A
O2632      C2645   1.270       .  A
O2632     Cd2639   2.034       .  S
O2633      C2651   1.276       .  A
O2633     Cd2642   2.080       .  S
O2634      C2648   1.267       .  A
O2634     Cd2638   2.018       .  S
O2635      C2646   1.273       .  A
O2635     Cd2638   2.058       .  S
Zn2636     O2647   2.019       .  S
Zn2636     O2649   1.982       .  S
Zn2636     O2641   1.949       .  S
O2637      C2648   1.271       .  A
O2637     Cd2642   2.047       .  S
Cd2638     O2640   2.081       .  S
Cd2638     O2641   1.989       .  S
Cd2639     O2643   2.092       .  S
Cd2639     O2652   2.086       .  S
Cd2639     O2641   2.001       .  S
O2640      C2650   1.274       .  A
O2641     Cd2642   2.004       .  S
Cd2642     O2644   2.092       .  S
O2643      C2650   1.277       .  A
C2645      O2649   1.270       .  A
C2651      O2652   1.276       .  A
C2653      C2654   1.425       .  A
C2653      C2658   1.420       .  A
C2653     Br2660   1.943       .  S
C2654      C2655   1.425       .  A
C2655      C2656   1.420       .  A
C2655     Br2662   1.943       .  S
C2656      C2657   1.425       .  A
C2656     Br2661   1.942       .  S
C2657      C2658   1.425       .  A
C2658     Br2659   1.941       .  S
C2663      C2664   1.419       .  A
C2663      C2668   1.419       .  A
C2663     Br2670   1.940       .  S
C2664      C2665   1.420       .  A
C2665      C2666   1.418       .  A
C2665     Br2672   1.940       .  S
C2666      C2667   1.425       .  A
C2666     Br2671   1.938       .  S
C2667      C2668   1.428       .  A
C2668     Br2669   1.941       .  S
C2673      C2674   1.422       .  A
C2673      C2678   1.420       .  A
C2673     Br2680   1.941       .  S
C2674      C2675   1.420       .  A
C2675      C2676   1.420       .  A
C2675     Br2682   1.938       .  S
C2676      C2677   1.425       .  A
C2676     Br2681   1.940       .  S
C2677      C2678   1.426       .  A
C2678     Br2679   1.941       .  S
C2683      C2684   1.424       .  A
C2683      C2688   1.422       .  A
C2683     Br2690   1.938       .  S
C2684      C2685   1.425       .  A
C2685      C2686   1.418       .  A
C2685     Br2692   1.941       .  S
C2686      C2687   1.423       .  A
C2686     Br2691   1.939       .  S
C2687      C2688   1.423       .  A
C2688     Br2689   1.938       .  S
C2693      C2694   1.407       .  A
C2693      C2698   1.408       .  A
C2693     Br2700   1.926       .  S
C2695     Br2702   1.926       .  S
C2696      C2697   1.405       .  A
C2696     Br2701   1.926       .  S
C2697      C2698   1.407       .  A
C2698     Br2699   1.925       .  S
C2703     Br2710   1.924       .  S
C2704      C3101   1.407       .  A
C2705      C3100   1.407       .  A
C2705      C2706   1.406       .  A
C2705     Br2712   1.924   1_556  S
C2706      C3103   1.405       .  A
C2706     Br2711   1.926       .  S
C2707      C3102   1.405       .  A
C2707      C2708   1.405       .  A
C2708     Br2709   1.926       .  S
C2713      C2714   1.422       .  A
C2713      C2718   1.418       .  A
C2713     Br2720   1.941       .  S
C2714      C2715   1.424       .  A
C2715      C2716   1.417       .  A
C2715     Br2722   1.941       .  S
C2716      C2717   1.422       .  A
C2716     Br2721   1.939       .  S
C2717      C2718   1.427       .  A
C2718     Br2719   1.942       .  S
C2723      C2724   1.427       .  A
C2723      C2728   1.419       .  A
C2723     Br2730   1.942       .  S
C2724      C2725   1.426       .  A
C2725      C2726   1.417       .  A
C2725     Br2732   1.940       .  S
C2726      C2727   1.419       .  A
C2726     Br2731   1.940       .  S
C2727      C2728   1.425       .  A
C2728     Br2729   1.945       .  S
C2733      C2734   1.407       .  A
C2733      C2738   1.406       .  A
C2734      C2735   1.409       .  A
C2735      C2736   1.410       .  A
C2736      C2737   1.408       .  A
C2736     Br2741   1.925       .  S
C2737      C2738   1.406       .  A
C2738     Br2739   1.924       .  S
C2743      C3140   1.407   1_556  A
C2743      C2748   1.405   1_556  A
C2743     Br2750   1.925       .  S
C2744      C3139   1.407       .  A
C2745     Br2752   1.924       .  S
C2746      C2747   1.406       .  A
C2746     Br2751   1.925       .  S
C2747      C3144   1.406       .  A
C2748      C3143   1.406       .  A
C2748     Br2749   1.925       .  S
C2753      C2754   1.424       .  A
C2753      C2758   1.417       .  A
C2753     Br2760   1.942       .  S
C2754      C2755   1.423       .  A
C2755      C2756   1.419       .  A
C2755     Br2762   1.938       .  S
C2756      C2757   1.425       .  A
C2756     Br2761   1.941       .  S
C2757      C2758   1.423       .  A
C2758     Br2759   1.941       .  S
C2763      C2764   1.425       .  A
C2763      C2768   1.418       .  A
C2763     Br2770   1.945       .  S
C2764      C2765   1.419       .  A
C2765      C2766   1.418       .  A
C2765     Br2772   1.938       .  S
C2766      C2767   1.425       .  A
C2766     Br2771   1.940       .  S
C2767      C2768   1.427       .  A
C2768     Br2769   1.944       .  S
C2773      C2775   1.538       .  S
C2773      C2777   1.542       .  S
C2773      C2776   1.545       .  S
C2773      C3150   1.556       .  S
C2774      C2778   1.543       .  S
C2774      C2780   1.544       .  S
C2774      C2779   1.548       .  S
C2774      C3160   1.556       .  S
C2775      C2783   1.377       .  A
C2776      C2787   1.380       .  A
C2777      C2791   1.385       .  A
C2778      C2781   1.385       .  A
C2779      C2785   1.379       .  A
C2780      C2788   1.380       .  A
C2781      N2782   1.358       .  A
C2781      H2794   1.083       .  S
N2782      C2883   1.432       .  S
C2783      H2784   1.082       .  S
C2785      H2795   1.082       .  S
N2786      C2787   1.356       .  A
C2787      H2793   1.082       .  S
C2788      N2789   1.352       .  A
C2788      H2790   1.082       .  S
N2789      C3021   1.434       .  S
C2791      H2792   1.082       .  S
C2796      C2798   1.545       .  S
C2796      C2800   1.540       .  S
C2796      C2799   1.551       .  S
C2796      C3163   1.557       .  S
C2797      C2801   1.542       .  S
C2797      C2803   1.549       .  S
C2797      C2802   1.547       .  S
C2797      C3153   1.557       .  S
C2798      C2806   1.388       .  A
C2798      C2801   1.395       .  A
C2799      C2810   1.381       .  A
C2799      C2802   1.401       .  A
C2800      C2814   1.381       .  A
C2800      C2803   1.403       .  A
C2801      C2804   1.382       .  A
C2802      C2808   1.382       .  A
C2803      C2811   1.390       .  A
C2804      N2805   1.356       .  A
C2804      H2817   1.082       .  S
N2805      C2806   1.358       .  A
N2805      C2909   1.438       .  S
C2806      H2807   1.082       .  S
C2808      N2809   1.355       .  A
C2808      H2818   1.085       .  S
N2809      C2810   1.357       .  A
C2810      H2816   1.079       .  S
C2811      N2812   1.357       .  A
C2811      H2813   1.082       .  S
N2812      C2814   1.350       .  A
N2812      C3046   1.437       .  S
C2814      H2815   1.082       .  S
C2819      C2821   1.536       .  S
C2819      C2823   1.538       .  S
C2819      C2822   1.551       .  S
C2819      C3110   1.555       .  S
C2820      C2824   1.542       .  S
C2820      C2826   1.544       .  S
C2820      C2825   1.544       .  S
C2820      C3120   1.557       .  S
C2821      C2829   1.383       .  A
C2822      C2833   1.380       .  A
C2823      C2837   1.377       .  A
C2824      C2827   1.378       .  A
C2825      C2831   1.378       .  A
C2826      C2834   1.387       .  A
C2827      H2840   1.082       .  S
N2828      C2829   1.353       .  A
N2828      C2881   1.430       .  S
C2829      H2830   1.083       .  S
C2831      H2841   1.082       .  S
N2832      C2833   1.355       .  A
C2833      H2839   1.082       .  S
C2834      H2836   1.082       .  S
N2835      C2837   1.352   1_554  A
C2837      H2838   1.083       .  S
C2842      C2844   1.540       .  S
C2842      C2846   1.542       .  S
C2842      C2845   1.546       .  S
C2842      C3123   1.555       .  S
C2843      C2847   1.550       .  S
C2843      C2849   1.539       .  S
C2843      C2848   1.543       .  S
C2843      C3113   1.557       .  S
C2844      C2852   1.378       .  A
C2844      C2847   1.409       .  A
C2845      C2856   1.378       .  A
C2845      C2848   1.399       .  A
C2846      C2860   1.385       .  A
C2846      C2849   1.393       .  A
C2847      C2850   1.390       .  A
C2848      C2854   1.379       .  A
C2849      C2857   1.379       .  A
C2850      N2851   1.356       .  A
C2850      H2863   1.083       .  S
N2851      C2852   1.349       .  A
N2851      C2903   1.435       .  S
C2852      H2853   1.082       .  S
C2854      N2855   1.354       .  A
C2854      H2864   1.082       .  S
N2855      C2856   1.354       .  A
C2856      H2862   1.082       .  S
C2857      N2858   1.355       .  A
C2857      H2859   1.082       .  S
N2858      C2860   1.358       .  A
N2858      C3047   1.434       .  S
C2860      H2861   1.082       .  S
O2865      C2881   1.274       .  A
C2866      O2879   1.272       .  A
C2866      C2889   1.445       .  S
O2868      C2886   1.277       .  A
O2868     Cd2877   2.091       .  S
O2869      C2883   1.272       .  A
O2869     Cd2873   2.069       .  S
Zn2871     O2882   1.971   1_565  S
Zn2871     O2884   2.039       .  S
O2872     Cd2877   2.085       .  S
Cd2873     O2875   2.013   1_655  S
Cd2874     O2878   2.036       .  S
Cd2874     O2887   2.077       .  S
O2876     Cd2877   2.002       .  S
Cd2877     O2879   2.044       .  S
O2878      C2885   1.271       .  A
C2880      N2920   1.438       .  S
C2880      O2884   1.275       .  A
C2885      C2908   1.441       .  S
C2886      N2973   1.435   1_556  S
O2888      C2904   1.274       .  A
O2888     Zn2894   2.021       .  S
C2889      O2902   1.272       .  A
O2890      C2903   1.275       .  A
O2891     Cd2900   2.092       .  S
O2892      C2906   1.275       .  A
O2892     Cd2896   2.071       .  S
O2893      C2904   1.272       .  A
Zn2894     O2905   1.964   1_565  S
O2895      C2906   1.277       .  A
O2895     Cd2900   2.097       .  S
Cd2896     O2898   2.027       .  S
Cd2896     O2899   1.996       .  S
Cd2897     O2901   2.031   1_655  S
Cd2897     O2910   2.089       .  S
O2898      C2908   1.269       .  A
O2899     Cd2900   2.003       .  S
Cd2900     O2902   2.041       .  S
C2903      O2907   1.273       .  A
C2904      N2943   1.431       .  S
C2906      N2996   1.436       .  S
C2909      O2910   1.276       .  A
C2911      C2913   1.558       .  S
C2911      C2915   1.553       .  S
C2911      C2914   1.532       .  S
C2911      C3070   1.558       .  S
C2912      C2916   1.548       .  S
C2912      C2918   1.537       .  S
C2912      C2917   1.546       .  S
C2912      C3080   1.560       .  S
C2913      C2921   1.387       .  A
C2914      C2925   1.375       .  A
C2915      C2929   1.388       .  A
C2916      C2919   1.382       .  A
C2917      C2923   1.383       .  A
C2918      C2926   1.377       .  A
C2919      H2932   1.082       .  S
N2920      C2921   1.358       .  A
C2921      H2922   1.082       .  S
C2923      H2933   1.082       .  S
N2924      C2925   1.352       .  A
N2924      C3143   1.431   1_556  S
C2925      H2931   1.083       .  S
C2926      H2928   1.083       .  S
N2927      C2929   1.360       .  A
N2927      C3018   1.436       .  S
C2929      H2930   1.082       .  S
C2934      C2936   1.551       .  S
C2934      C2938   1.538       .  S
C2934      C2937   1.546       .  S
C2934      C3083   1.560       .  S
C2935      C2939   1.550       .  S
C2935      C2941   1.549       .  S
C2935      C2940   1.534       .  S
C2935      C3073   1.558       .  S
C2936      C2944   1.381       .  A
C2936      C2939   1.407       .  A
C2937      C2948   1.387       .  A
C2937      C2940   1.393       .  A
C2938      C2952   1.376       .  A
C2938      C2941   1.396       .  A
C2939      C2942   1.379       .  A
C2940      C2946   1.375       .  A
C2941      C2949   1.386       .  A
C2942      N2943   1.355       .  A
C2942      H2955   1.082       .  S
N2943      C2944   1.356       .  A
C2944      H2945   1.083       .  S
C2946      N2947   1.352       .  A
C2946      H2956   1.083       .  S
N2947      C2948   1.359       .  A
N2947      C3133   1.435       .  S
C2948      H2954   1.082       .  S
C2949      N2950   1.359       .  A
C2949      H2951   1.082       .  S
N2950      C2952   1.356       .  A
N2950      C3027   1.435       .  S
C2952      H2953   1.083       .  S
C2957      C2959   1.553       .  S
C2957      C2961   1.557       .  S
C2957      C2960   1.522       .  S
C2957      C3063   1.558       .  S
C2958      C2962   1.548       .  S
C2958      C2964   1.550       .  S
C2958      C2963   1.532       .  S
C2958      C3050   1.558       .  S
C2959      C2967   1.380       .  A
C2960      C2971   1.374       .  A
C2961      C2975   1.384       .  A
C2962      C2965   1.381       .  A
C2963      C2969   1.379       .  A
C2964      C2972   1.381       .  A
C2965      N2966   1.355   1_556  A
C2965      H2978   1.082       .  S
N2966      C3004   1.434       .  S
C2967      H2968   1.082       .  S
C2969      N2970   1.355       .  A
C2969      H2979   1.082       .  S
N2970      C3103   1.428       .  S
C2971      H2977   1.083       .  S
C2972      N2973   1.355   1_556  A
C2972      H2974   1.082       .  S
C2975      H2976   1.082       .  S
C2980      C2982   1.553       .  S
C2980      C2984   1.553       .  S
C2980      C2983   1.535       .  S
C2980      C3053   1.560       .  S
C2981      C2985   1.551       .  S
C2981      C2987   1.548       .  S
C2981      C2986   1.529       .  S
C2981      C3060   1.553       .  S
C2982      C2990   1.379       .  A
C2982      C2985   1.405       .  A
C2983      C2994   1.381       .  A
C2983      C2986   1.387       .  A
C2984      C2998   1.387       .  A
C2984      C2987   1.402       .  A
C2985      C2988   1.384       .  A
C2986      C2992   1.376       .  A
C2987      C2995   1.380       .  A
C2988      N2989   1.357       .  A
C2988      H3001   1.081       .  S
N2989      C2990   1.358       .  A
N2989      C3042   1.437       .  S
C2990      H2991   1.082       .  S
C2992      N2993   1.355       .  A
C2992      H3002   1.082       .  S
N2993      C2994   1.356       .  A
N2993      C3093   1.431       .  S
C2994      H3000   1.083       .  S
C2995      N2996   1.355       .  A
C2995      H2997   1.082       .  S
N2996      C2998   1.358       .  A
C2998      H2999   1.082       .  S
O3003      C3019   1.270       .  A
O3003     Zn3009   1.979       .  S
C3004      O3020   1.275   1_554  A
O3005     Cd3012   2.088       .  S
O3006      C3024   1.267       .  A
O3006     Cd3015   2.017       .  S
O3007     Cd3011   2.089       .  S
O3008      C3019   1.270       .  A
O3008     Cd3011   2.037       .  S
Zn3009     O3020   2.041       .  S
Zn3009     O3022   2.025       .  S
Zn3009     O3014   1.942       .  S
O3010      C3021   1.273       .  A
O3010     Cd3015   2.067       .  S
Cd3011     O3013   2.074       .  S
Cd3011     O3014   1.995       .  S
Cd3012     O3016   2.089       .  S
Cd3012     O3025   2.050       .  S
Cd3015     O3017   2.060       .  S
O3016      C3023   1.277       .  A
C3018      O3022   1.274       .  A
C3019      C3044   1.433       .  S
C3024      O3025   1.272       .  A
C3024      C3041   1.433       .  S
O3026      C3042   1.277       .  A
O3026     Zn3032   2.060       .  S
C3027      O3043   1.274       .  A
C3027      O3040   1.276       .  A
O3028      C3041   1.270       .  A
O3028     Cd3035   2.034       .  S
O3029      C3047   1.276       .  A
O3029     Cd3038   2.080       .  S
O3030      C3044   1.267       .  A
O3030     Cd3034   2.018       .  S
O3031      C3042   1.273       .  A
O3031     Cd3034   2.058       .  S
Zn3032     O3043   2.019       .  S
Zn3032     O3045   1.982       .  S
Zn3032     O3037   1.949       .  S
O3033      C3044   1.271       .  A
O3033     Cd3038   2.047       .  S
Cd3034     O3036   2.081       .  S
Cd3034     O3037   1.989       .  S
Cd3035     O3039   2.092       .  S
Cd3035     O3048   2.086       .  S
Cd3035     O3037   2.001       .  S
O3036      C3046   1.274       .  A
O3037     Cd3038   2.004       .  S
Cd3038     O3040   2.092       .  S
O3039      C3046   1.277       .  A
C3041      O3045   1.270       .  A
C3047      O3048   1.276       .  A
C3049      C3050   1.425       .  A
C3049      C3054   1.420       .  A
C3049     Br3056   1.943       .  S
C3050      C3051   1.425       .  A
C3051      C3052   1.420       .  A
C3051     Br3058   1.943       .  S
C3052      C3053   1.425       .  A
C3052     Br3057   1.942       .  S
C3053      C3054   1.425       .  A
C3054     Br3055   1.941       .  S
C3059      C3060   1.419       .  A
C3059      C3064   1.419       .  A
C3059     Br3066   1.940       .  S
C3060      C3061   1.420       .  A
C3061      C3062   1.418       .  A
C3061     Br3068   1.940       .  S
C3062      C3063   1.425       .  A
C3062     Br3067   1.938       .  S
C3063      C3064   1.428       .  A
C3064     Br3065   1.941       .  S
C3069      C3070   1.422       .  A
C3069      C3074   1.420       .  A
C3069     Br3076   1.941       .  S
C3070      C3071   1.420       .  A
C3071      C3072   1.420       .  A
C3071     Br3078   1.938       .  S
C3072      C3073   1.425       .  A
C3072     Br3077   1.940       .  S
C3073      C3074   1.426       .  A
C3074     Br3075   1.941       .  S
C3079      C3080   1.424       .  A
C3079      C3084   1.422       .  A
C3079     Br3086   1.938       .  S
C3080      C3081   1.425       .  A
C3081      C3082   1.418       .  A
C3081     Br3088   1.941       .  S
C3082      C3083   1.423       .  A
C3082     Br3087   1.939       .  S
C3083      C3084   1.423       .  A
C3084     Br3085   1.938       .  S
C3089      C3090   1.407       .  A
C3089      C3094   1.408       .  A
C3089     Br3096   1.926       .  S
C3091     Br3098   1.926       .  S
C3092      C3093   1.405       .  A
C3092     Br3097   1.926       .  S
C3093      C3094   1.407       .  A
C3094     Br3095   1.925       .  S
C3099     Br3106   1.924       .  S
C3101      C3102   1.406       .  A
C3101     Br3108   1.924       .  S
C3102     Br3107   1.926       .  S
C3103      C3104   1.405       .  A
C3104     Br3105   1.926   1_556  S
C3109      C3110   1.422       .  A
C3109      C3114   1.418       .  A
C3109     Br3116   1.941       .  S
C3110      C3111   1.424       .  A
C3111      C3112   1.417       .  A
C3111     Br3118   1.941       .  S
C3112      C3113   1.422       .  A
C3112     Br3117   1.939       .  S
C3113      C3114   1.427       .  A
C3114     Br3115   1.942       .  S
C3119      C3120   1.427       .  A
C3119      C3124   1.419       .  A
C3119     Br3126   1.942       .  S
C3120      C3121   1.426       .  A
C3121      C3122   1.417       .  A
C3121     Br3128   1.940       .  S
C3122      C3123   1.419       .  A
C3122     Br3127   1.940       .  S
C3123      C3124   1.425       .  A
C3124     Br3125   1.945       .  S
C3129      C3130   1.407       .  A
C3129      C3134   1.406       .  A
C3130      C3131   1.409       .  A
C3131      C3132   1.410       .  A
C3132      C3133   1.408       .  A
C3132     Br3137   1.925       .  S
C3133      C3134   1.406       .  A
C3134     Br3135   1.924       .  S
C3139      C3144   1.405       .  A
C3139     Br3146   1.925       .  S
C3141     Br3148   1.924       .  S
C3142      C3143   1.406       .  A
C3142     Br3147   1.925       .  S
C3144     Br3145   1.925       .  S
C3149      C3150   1.424       .  A
C3149      C3154   1.417       .  A
C3149     Br3156   1.942       .  S
C3150      C3151   1.423       .  A
C3151      C3152   1.419       .  A
C3151     Br3158   1.938       .  S
C3152      C3153   1.425       .  A
C3152     Br3157   1.941       .  S
C3153      C3154   1.423       .  A
C3154     Br3155   1.941       .  S
C3159      C3160   1.425       .  A
C3159      C3164   1.418       .  A
C3159     Br3166   1.945       .  S
C3160      C3161   1.419       .  A
C3161      C3162   1.418       .  A
C3161     Br3168   1.938       .  S
C3162      C3163   1.425       .  A
C3162     Br3167   1.940       .  S
C3163      C3164   1.427       .  A
C3164     Br3165   1.944       .  S
