geometry optimzed in LAMMPS
_audit_creation_date              2020-11-30 
_audit_creation_method            'lammps2cif' 
_symmetry_space_group_name_H-M    'P1' 
_symmetry_Int_Tables_number       1 
_symmetry_cell_setting            triclinic 
loop_ 
_symmetry_equiv_pos_as_xyz 
  x,y,z 
_cell_length_a                    46.71812216 
_cell_length_b                    47.26158173401895 
_cell_length_c                    41.95056288553473 
_cell_angle_alpha                 90.368106818542 
_cell_angle_beta                  89.94418570478008 
_cell_angle_gamma                 119.89086474103124 
loop_ 
_atom_site_label 
_atom_site_type_symbol 
_atom_site_fract_x 
_atom_site_fract_y 
_atom_site_fract_z 
_atom_site_charge 
C1          C  0.33559225  0.16777870  0.21374894     0.45100
H2          H  0.33651044  0.16872728  0.18731636    -0.03900
C3          C  0.33356857  0.16550177  0.27572398     0.45200
H4          H  0.33260171  0.16440177  0.30209411    -0.03900
C5          C  0.33891994  0.19884966  0.22940575    -0.17600
C6          C  0.30301352  0.13994403  0.22701905    -0.17300
C7          C  0.36307838  0.16298195  0.22863198    -0.17700
C8          C  0.33680537  0.19721242  0.26231930    -0.17700
C9          C  0.30278118  0.13743378  0.25975972    -0.17200
C10         C  0.36287135  0.16358469  0.26156193    -0.17600
C11         C  0.16534442  0.33576475  0.22173558     0.45100
H12         H  0.16657163  0.33704617  0.19532571    -0.03900
C13         C  0.16314475  0.33307337  0.28361168     0.45200
H14         H  0.16274014  0.33269576  0.31006481    -0.03900
C15         C  0.13761294  0.30275628  0.23475626    -0.17600
C16         C  0.19707257  0.33932941  0.23671708    -0.17300
C17         C  0.16010546  0.36262817  0.23767789    -0.17700
C18         C  0.13504158  0.30226204  0.26773796    -0.17700
C19         C  0.19559963  0.33745584  0.26948972    -0.17200
C20         C  0.15964626  0.36118455  0.27038806    -0.17600
C21         C  0.35558354  0.35778453  0.13962456     0.02800
C22         C  0.32640315  0.35718564  0.14958426    -0.13300
C23         C  0.30580745  0.33494240  0.17298711     0.00300
C24         C  0.31537100  0.31369295  0.18605141    -0.11900
C25         C  0.34280746  0.31229037  0.17483695     0.02800
C26         C  0.36305602  0.33448671  0.15174310    -0.11300
H27         H  0.32000419  0.37416114  0.13907537     0.08400
H28         H  0.30088399  0.29722760  0.20458686     0.05900
H29         H  0.38417974  0.33325206  0.14281219     0.05800
C30         C  0.34762378  0.34706298  0.36518011     0.02800
C31         C  0.35026599  0.32147796  0.35058369    -0.13300
C32         C  0.32317863  0.29598976  0.33435335     0.00300
C33         C  0.29323523  0.29606936  0.33402655    -0.11900
C34         C  0.29139478  0.32330521  0.34431925     0.02800
C35         C  0.31809215  0.34793303  0.36145278    -0.11300
H36         H  0.37363480  0.32189250  0.35142352     0.08400
H37         H  0.27188773  0.27596544  0.32299758     0.05900
H38         H  0.31590529  0.36797019  0.37137055     0.05800
C39         C  0.14983232  0.50290935  0.36568025     0.02800
C40         C  0.17459956  0.03061674  0.35046716    -0.13300
C41         C  0.19947170  0.02941656  0.33237411     0.00300
C42         C  0.19809584  0.99909681  0.32897472    -0.11900
C43         C  0.17179529  0.47105711  0.34094473     0.02800
C44         C  0.14808330  0.47281828  0.35986374    -0.11300
H45         H  0.17394383  0.05310468  0.35252202     0.08400
H46         H  0.21668776  0.99721663  0.31524204     0.05900
H47         H  0.12807297  0.45065426  0.36983534     0.05800
C48         C  0.14824765  0.49895973  0.13064036     0.02800
C49         C  0.17210876  0.02962508  0.14126143    -0.13300
C50         C  0.19400223  0.03327195  0.16565817     0.00300
C51         C  0.19073800  0.50601800  0.18074312    -0.11900
C52         C  0.16859984  0.47434597  0.16952658     0.02800
C53         C  0.14700140  0.47119939  0.14431830    -0.10800
H54         H  0.17401361  0.05103757  0.12991376     0.08400
H55         H  0.20572464  0.50964730  0.20164896     0.05900
H56         H  0.12924121  0.44741089  0.13501377     0.05800
C57         C  0.50461737  0.14581821  0.13399319     0.02800
C58         C  0.03415261  0.17124775  0.14628536    -0.13300
C59         C  0.03413926  0.19564831  0.16547908     0.00300
C60         C  0.00407980  0.19360075  0.17370990    -0.11900
C61         C  0.47422154  0.16727932  0.16339109     0.02800
C62         C  0.47454041  0.14357854  0.14323059    -0.11300
H63         H  0.05740245  0.17252831  0.14064632     0.08400
H64         H  0.00397546  0.21190752  0.18934436     0.05900
H65         H  0.45135976  0.12361369  0.13453500     0.05800
C66         C  0.49791834  0.14478976  0.36503809     0.02800
C67         C  0.46799018  0.14236302  0.35477749    -0.13300
C68         C  0.46787758  0.16972648  0.34169690     0.00300
C69         C  0.99859684  0.19993269  0.34105459    -0.11900
C70         C  0.02870957  0.20034617  0.34330163     0.02800
C71         C  0.02867156  0.17314453  0.35653484    -0.11300
H72         H  0.44534339  0.11934937  0.35697368     0.08400
H73         H  0.99893907  0.22204907  0.33372914     0.05900
H74         H  0.05165006  0.17323424  0.36016902     0.05800
O75         O  0.02395988  0.47131010  0.03850691    -0.85700
O76         O  0.45804890  0.43494294  0.02538169    -0.82700
C77         C  0.44145353  0.44430283  0.04163205     0.97800
O78         O  0.44353744  0.47151826  0.03674086    -0.82700
O79         O  0.47686652  0.03723236  0.02579774    -0.85400
C80         C  0.00156960  0.05045479  0.04427151     1.02300
O81         O  0.02610645  0.04654170  0.04008475    -0.78200
O82         O  0.06234629  0.01762530  0.02098056    -0.78300
C83         C  0.05273296  0.99461452  0.04066345     1.02300
O84         O  0.03893402  0.47563915  0.47089147    -0.85700
O85         O  0.47221921  0.44255260  0.45857536    -0.82700
C86         C  0.44448862  0.44016607  0.45372175     0.97800
O87         O  0.43524329  0.45699138  0.46971009    -0.82800
O88         O  0.47152136  0.02306299  0.45751676    -0.85400
C89         C  0.99580470  0.05202116  0.45594128     1.02300
O90         O  0.01970801  0.06078206  0.47495863    -0.78200
O91         O  0.04830617  0.02455993  0.45559015    -0.78300
C92         C  0.05268294  0.50018151  0.45262165     1.02300
Cr93       Cr  0.49834554  0.45934354  0.99815128     1.93700
Cr94       Cr  0.45981490  0.49692017  0.49728612     1.93200
Cr95       Cr  0.03601955  0.03427874  0.49748473     1.39100
O96         O  0.49785181  0.49671776  0.99761315    -1.23400
C97         C  0.49801243  0.11999252  0.38656590    -0.06400
C98         C  0.01387952  0.13143070  0.41597364    -0.17600
C99         C  0.01235732  0.10976519  0.43927727     0.10800
C100        C  0.99609682  0.07582593  0.43266745    -0.06400
C101        C  0.48069895  0.06434021  0.40294594    -0.17600
C102        C  0.48186694  0.08616782  0.37965394     0.10800
S103        S  0.02964231  0.12714555  0.47767234    -0.32600
S104        S  0.46347261  0.06943781  0.34137885    -0.32600
H105        H  0.48423789  0.09748483  0.32371111     0.28800
H106        H  0.00298838  0.10268619  0.49484834     0.28800
H107        H  0.02593690  0.15725253  0.42172711     0.19400
H108        H  0.46868734  0.03852737  0.39724959     0.19400
C109        C  0.50486351  0.12148500  0.11127706    -0.06400
C110        C  0.48322728  0.08795291  0.11637364    -0.17600
C111        C  0.48233922  0.06416131  0.09551642     0.10800
C112        C  0.00336034  0.07356580  0.06905284    -0.06400
C113        C  0.02568797  0.10676023  0.06445347    -0.17600
C114        C  0.02582049  0.13065221  0.08439101     0.10800
S115        S  0.45410230  0.02187019  0.10432899    -0.32600
S116        S  0.05170362  0.17252983  0.07247808    -0.32600
H117        H  0.02933100  0.18273954  0.08184200     0.28800
H118        H  0.47357981  0.00976704  0.09109350     0.28800
H119        H  0.46703857  0.08018792  0.13689651     0.19400
H120        H  0.04206563  0.11426133  0.04409195     0.19400
C121        C  0.07639382  0.99498565  0.06440512    -0.06400
C122        C  0.10932531  0.50605897  0.05375094    -0.17600
C123        C  0.13275515  0.50621127  0.07468633     0.10800
C124        C  0.12371515  0.49571475  0.10641299    -0.06400
C125        C  0.09085390  0.98505308  0.11729129    -0.17600
C126        C  0.06764378  0.98554832  0.09645722     0.10800
S127        S  0.17375538  0.52013053  0.05949630    -0.32600
S128        S  0.02836522  0.97655761  0.11291435    -0.32600
H129        H  0.02485608  0.99932470  0.09431994     0.28800
H130        H  0.18139094  0.50129308  0.07985724     0.28800
H131        H  0.11645792  0.51379895  0.02935061     0.19400
H132        H  0.08415311  0.97838055  0.14197694     0.19400
C133        C  0.07649475  0.50206968  0.42858845    -0.06400
C134        C  0.10997119  0.02345351  0.43395214    -0.17600
C135        C  0.13435662  0.02385513  0.41428455     0.10800
C136        C  0.12509842  0.50407338  0.38707281    -0.06400
C137        C  0.09131481  0.48298485  0.38089940    -0.17600
C138        C  0.06698742  0.48171486  0.40137706     0.10800
S139        S  0.17661083  0.04860103  0.42715649    -0.32600
S140        S  0.02437238  0.45369190  0.39162483    -0.32600
H141        H  0.01177817  0.47262722  0.40494149     0.28800
H142        H  0.18696428  0.02676830  0.41681672     0.28800
H143        H  0.11728925  0.03859684  0.45525075     0.19400
H144        H  0.08384246  0.46725967  0.36002470     0.19400
C145        C  0.42181608  0.41659226  0.42969088    -0.06400
C146        C  0.40828335  0.42752344  0.40624082    -0.17600
C147        C  0.38607801  0.40604596  0.38334563     0.10800
C148        C  0.37532528  0.37222999  0.38496775    -0.06400
C149        C  0.38987072  0.36163382  0.40780927    -0.17600
C150        C  0.41300596  0.38330964  0.42988065     0.10800
S151        S  0.37405767  0.42377957  0.35178737    -0.32600
S152        S  0.42904715  0.36650303  0.45859296    -0.32600
H153        H  0.42828229  0.38506853  0.48447363     0.28800
H154        H  0.36960270  0.40026172  0.32861955     0.28800
H155        H  0.41573192  0.45320136  0.40527200     0.19400
H156        H  0.38217312  0.33593548  0.40937381     0.19400
C157        C  0.41894972  0.42272912  0.06652578    -0.06400
C158        C  0.43226785  0.42142728  0.09599997    -0.17600
C159        C  0.41206514  0.40182727  0.12072190     0.10800
C160        C  0.37766277  0.38185440  0.11559289    -0.06400
C161        C  0.36426870  0.38383711  0.08626329    -0.17600
C162        C  0.38447437  0.40399675  0.06178747     0.10800
S163        S  0.43155219  0.40458209  0.15861724    -0.32600
S164        S  0.36485063  0.40448609  0.02498611    -0.32600
H165        H  0.39046522  0.40777512  0.00506355     0.28800
H166        H  0.40419543  0.39892568  0.17729320     0.28800
H167        H  0.45855007  0.43636172  0.10001083     0.19400
H168        H  0.33796511  0.36885952  0.08203944     0.19400
C169        C  0.16088882  0.39026828  0.21967115    -0.06400
C170        C  0.19063119  0.41993549  0.21934602    -0.17600
C171        C  0.19495522  0.44585880  0.20009071     0.10800
C172        C  0.16716176  0.44501503  0.18521981    -0.06400
C173        C  0.13680613  0.41562775  0.18691286    -0.17600
C174        C  0.13373271  0.38804904  0.20244936     0.10800
S175        S  0.23719516  0.47674892  0.19254291    -0.32600
S176        S  0.09401975  0.35165476  0.19936215    -0.32600
H177        H  0.10044270  0.33400363  0.22174726     0.28800
H178        H  0.23095040  0.98202880  0.16206745     0.28800
H179        H  0.21143571  0.42223309  0.23277705     0.19400
H180        H  0.11489684  0.41382477  0.17622190     0.19400
C181        C  0.16672281  0.43929765  0.32905830    -0.06400
C182        C  0.13697393  0.41844789  0.31323786    -0.17600
C183        C  0.13317129  0.39160515  0.29560857     0.10800
C184        C  0.16021230  0.38639769  0.29206178    -0.06400
C185        C  0.18882758  0.40541251  0.31013231    -0.17600
C186        C  0.19226411  0.43150448  0.32884285     0.10800
S187        S  0.09284443  0.36408364  0.27993076    -0.32600
S188        S  0.22970879  0.45378121  0.35183982    -0.32600
H189        H  0.21612849  0.46510356  0.37518332     0.28800
H190        H  0.09586063  0.33618309  0.28365886     0.28800
H191        H  0.11678851  0.42354884  0.31393127     0.19400
H192        H  0.20875784  0.40004034  0.30961152     0.19400
C193        C  0.26499188  0.32870690  0.33086949    -0.06400
C194        C  0.27474774  0.35809783  0.31468331    -0.17600
C195        C  0.25283165  0.36225348  0.29515043     0.10800
C196        C  0.22049869  0.33580561  0.29027280    -0.06400
C197        C  0.21047733  0.30685376  0.30716259    -0.17600
C198        C  0.23174181  0.30344603  0.32821659     0.10800
S199        S  0.26834559  0.40205665  0.27780874    -0.32600
S200        S  0.21459251  0.26659627  0.35147343    -0.32600
H201        H  0.23797625  0.27994015  0.37625108     0.28800
H202        H  0.23829016  0.39820309  0.26699569     0.28800
H203        H  0.30010227  0.37777426  0.31635314     0.19400
H204        H  0.18583070  0.28649706  0.30378916     0.19400
C205        C  0.27544260  0.33474873  0.18529791    -0.06400
C206        C  0.27564639  0.36446485  0.18841286    -0.17600
C207        C  0.24918109  0.36602068  0.20223293     0.10800
C208        C  0.22343000  0.33830395  0.21720756    -0.06400
C209        C  0.22236061  0.30836328  0.21307167    -0.17600
C210        C  0.24674399  0.30593207  0.19570924     0.10800
S211        S  0.24922100  0.40367601  0.19826043    -0.32600
S212        S  0.23776720  0.26517195  0.18533438    -0.32600
H213        H  0.25541260  0.27415899  0.15649189     0.28800
H214        H  0.21723751  0.38821557  0.18524227     0.28800
H215        H  0.29642021  0.38685036  0.17985559     0.19400
H216        H  0.20163164  0.28640453  0.22225030     0.19400
C217        C  0.10759859  0.27616370  0.28737162    -0.06400
C218        C  0.11494108  0.26759975  0.31729859    -0.17600
C219        C  0.09022972  0.24380446  0.33680470     0.10800
C220        C  0.05745073  0.22626641  0.32542155    -0.06400
C221        C  0.05061943  0.23417236  0.29525237    -0.17600
C222        C  0.07410152  0.26036095  0.27774303     0.10800
S223        S  0.10202283  0.23833475  0.37616986    -0.32600
S224        S  0.05871023  0.27564528  0.24683473    -0.32600
H225        H  0.02782379  0.24737526  0.24231356     0.28800
H226        H  0.07180715  0.23041637  0.39067366     0.28800
H227        H  0.13987819  0.28011512  0.32633116     0.19400
H228        H  0.02596121  0.22063429  0.28581459     0.19400
C229        C  0.06534431  0.22286959  0.17817244    -0.06400
C230        C  0.08188203  0.21639689  0.20236913    -0.17600
C231        C  0.10785032  0.24178280  0.21945348     0.10800
C232        C  0.11688505  0.27464828  0.21283812    -0.06400
C233        C  0.10325646  0.28080725  0.18568686    -0.17600
C234        C  0.07724076  0.25543635  0.16874714     0.10800
S235        S  0.12809655  0.22995340  0.24878609    -0.32600
S236        S  0.05905123  0.26635400  0.13659555    -0.32600
H237        H  0.04669990  0.23685606  0.11952435     0.28800
H238        H  0.15614681  0.26067032  0.25287058     0.28800
H239        H  0.07366266  0.19132817  0.20881796     0.19400
H240        H  0.11124738  0.30560483  0.17878787     0.19400
C241        C  0.38964196  0.16593216  0.28260956    -0.06400
C242        C  0.38121810  0.14604683  0.30982681    -0.17600
C243        C  0.40551177  0.14766087  0.33078671     0.10800
C244        C  0.43935751  0.16765312  0.32306726    -0.06400
C245        C  0.44707313  0.18704337  0.29549999    -0.17600
C246        C  0.42322864  0.18847109  0.27708290     0.10800
S247        S  0.39131318  0.12545930  0.36754208    -0.32600
S248        S  0.43843966  0.22218124  0.24952890    -0.32600
H249        H  0.40925931  0.22350140  0.24661763     0.28800
H250        H  0.41832521  0.14832400  0.38579583     0.28800
H251        H  0.35543717  0.12962064  0.31521507     0.19400
H252        H  0.47225846  0.20249909  0.28825605     0.19400
C253        C  0.38824503  0.16025473  0.20858990    -0.06400
C254        C  0.40452511  0.18359648  0.18464830    -0.17600
C255        C  0.43181071  0.18571416  0.16845339     0.10800
C256        C  0.44269892  0.16344699  0.17556354    -0.06400
C257        C  0.42487938  0.13850184  0.19743743    -0.17600
C258        C  0.39776506  0.13647608  0.21391102     0.10800
S259        S  0.45245183  0.21811660  0.13996123    -0.32600
S260        S  0.37569768  0.10311305  0.24116288    -0.32600
H261        H  0.39406539  0.08732579  0.23589957     0.28800
H262        H  0.96501705  0.20209002  0.12073666     0.28800
H263        H  0.39729936  0.20169185  0.17994336     0.19400
H264        H  0.43314496  0.12127072  0.20246216     0.19400
C265        C  0.34370426  0.22780908  0.21063735    -0.06400
C266        C  0.36909118  0.25913158  0.21972316    -0.17600
C267        C  0.37063292  0.28752152  0.20767999     0.10800
C268        C  0.34698535  0.28464204  0.18501873    -0.06400
C269        C  0.32329193  0.25358514  0.17417770    -0.17600
C270        C  0.32116044  0.22522243  0.18672972     0.10800
S271        S  0.40218659  0.32619786  0.22355495    -0.32600
S272        S  0.28739841  0.18635381  0.17401505    -0.32600
H273        H  0.27281914  0.19804624  0.15235853     0.28800
H274        H  0.38667091  0.34442757  0.21698855     0.28800
H275        H  0.38662641  0.26147656  0.23789056     0.19400
H276        H  0.30521813  0.25167212  0.15686036     0.19400
C277        C  0.33302281  0.22134815  0.28265504    -0.06400
C278        C  0.31147500  0.23182333  0.27191491    -0.17600
C279        C  0.30991960  0.25747790  0.28665129     0.10800
C280        C  0.32621549  0.27017756  0.31624699    -0.06400
C281        C  0.34558344  0.25763394  0.32865134    -0.17600
C282        C  0.35012054  0.23443029  0.31173995     0.10800
S283        S  0.28940172  0.27453784  0.26410887    -0.32600
S284        S  0.37941867  0.22423934  0.32788428    -0.32600
H285        H  0.39503946  0.22800098  0.29848950     0.28800
H286        H  0.31278928  0.30714080  0.27153694     0.28800
H287        H  0.29703067  0.22125326  0.25048908     0.19400
H288        H  0.35810463  0.26658052  0.35129501     0.19400
C289        C  0.27681921  0.10952562  0.27861687    -0.06400
C290        C  0.26597166  0.11607179  0.30757749    -0.17600
C291        C  0.24220050  0.09079433  0.32647242     0.10800
C292        C  0.22553646  0.05828643  0.31452073    -0.06400
C293        C  0.23557622  0.05239534  0.28476455    -0.17600
C294        C  0.26291562  0.07650611  0.26886508     0.10800
S295        S  0.23704942  0.10161908  0.36640681    -0.32600
S296        S  0.28101075  0.06176361  0.23992749    -0.32600
H297        H  0.31208402  0.08977696  0.24039379     0.28800
H298        H  0.23475096  0.07345412  0.38006706     0.28800
H299        H  0.27698077  0.14096739  0.31625446     0.19400
H300        H  0.22348865  0.02812346  0.27442542     0.19400
C301        C  0.27476216  0.11814667  0.20598855    -0.06400
C302        C  0.28044338  0.10232313  0.18043281    -0.17600
C303        C  0.25409434  0.07596909  0.16489022     0.10800
C304        C  0.22144564  0.06566757  0.17472235    -0.06400
C305        C  0.21566570  0.08422481  0.19723214    -0.17600
C306        C  0.24209254  0.11092047  0.21252415     0.10800
S307        S  0.26379853  0.05469114  0.13474537    -0.32600
S308        S  0.23398012  0.13568867  0.24001568    -0.32600
H309        H  0.19952971  0.11934946  0.23578716     0.28800
H310        H  0.23398412  0.04236368  0.11778207     0.28800
H311        H  0.30547972  0.10855704  0.17446144     0.19400
H312        H  0.19049910  0.07678167  0.20388451     0.19400
C313        C  0.33579949  0.16810405  0.71378007     0.45100
H314        H  0.33675870  0.16925440  0.68735934    -0.03900
C315        C  0.33371221  0.16530998  0.77573206     0.45200
H316        H  0.33274823  0.16403042  0.80210093    -0.03900
C317        C  0.33926753  0.19912073  0.72974612    -0.17600
C318        C  0.30316971  0.14021195  0.72688364    -0.17300
C319        C  0.36315455  0.16301947  0.72846358    -0.17700
C320        C  0.33708064  0.19716692  0.76264044    -0.17700
C321        C  0.30282192  0.13749184  0.75962259    -0.17200
C322        C  0.36296534  0.16336984  0.76139921    -0.17600
C323        C  0.16539647  0.33567160  0.72249453     0.45100
H324        H  0.16669706  0.33706363  0.69609184    -0.03900
C325        C  0.16301710  0.33273236  0.78435634     0.45200
H326        H  0.16256206  0.33227944  0.81080616    -0.03900
C327        C  0.13766232  0.30258137  0.73537912    -0.17600
C328        C  0.19711831  0.33926435  0.73751554    -0.17300
C329        C  0.16004962  0.36242462  0.73852754    -0.17700
C330        C  0.13499319  0.30194671  0.76835999    -0.17700
C331        C  0.19553091  0.33724317  0.77027260    -0.17200
C332        C  0.15949880  0.36085471  0.77122557    -0.17600
C333        C  0.35611548  0.35847055  0.64073468     0.02800
C334        C  0.32685601  0.35772562  0.65061905    -0.13300
C335        C  0.30648528  0.33566892  0.67424665     0.00300
C336        C  0.31630065  0.31469900  0.68752438    -0.11900
C337        C  0.34378391  0.31337390  0.67633037     0.02800
C338        C  0.36398494  0.33557887  0.65319812    -0.11300
H339        H  0.32019928  0.37440297  0.63983998     0.08400
H340        H  0.30191482  0.29832175  0.70615293     0.05900
H341        H  0.38524143  0.33453626  0.64435089     0.05800
C342        C  0.34733653  0.34655361  0.86587215     0.02800
C343        C  0.35004630  0.32097356  0.85134649    -0.13300
C344        C  0.32299922  0.29545670  0.83507562     0.00300
C345        C  0.29302948  0.29549854  0.83472495    -0.11900
C346        C  0.29112601  0.32271105  0.84499926     0.02800
C347        C  0.31778796  0.34736066  0.86213380    -0.11300
H348        H  0.37344063  0.32144562  0.85224904     0.08400
H349        H  0.27170337  0.27536779  0.82371702     0.05900
H350        H  0.31559666  0.36741496  0.87200625     0.05800
C351        C  0.14974891  0.50285127  0.86582177     0.02800
C352        C  0.17424151  0.03098343  0.85063563    -0.13300
C353        C  0.19906455  0.02988885  0.83233073     0.00300
C354        C  0.19781876  0.99963079  0.82887382    -0.11900
C355        C  0.17184938  0.47098555  0.84139353     0.02800
C356        C  0.14804935  0.47277048  0.86014990    -0.11300
H357        H  0.17351318  0.05342507  0.85281132     0.08400
H358        H  0.21641624  0.99782514  0.81506891     0.05900
H359        H  0.12798281  0.45062416  0.87008909     0.05800
C360        C  0.14855592  0.49844591  0.63083243     0.02800
C361        C  0.17284168  0.03023440  0.64013092    -0.13300
C362        C  0.19454963  0.03389266  0.66472988     0.00300
C363        C  0.19091990  0.50579223  0.68116346    -0.11900
C364        C  0.16885622  0.47406710  0.67002530     0.02800
C365        C  0.14734963  0.47077768  0.64467947    -0.10800
H366        H  0.17476709  0.05164320  0.62875653     0.08400
H367        H  0.20583820  0.50953075  0.70214761     0.05900
H368        H  0.12964803  0.44693735  0.63543567     0.05800
C369        C  0.50454800  0.14592761  0.63353355     0.02800
C370        C  0.03471585  0.17146018  0.64616565    -0.13300
C371        C  0.03457128  0.19573496  0.66545988     0.00300
C372        C  0.00444923  0.19356098  0.67367005    -0.11900
C373        C  0.47395225  0.16738315  0.66257760     0.02800
C374        C  0.47440657  0.14367442  0.64253553    -0.11300
H375        H  0.05800997  0.17281304  0.64058631     0.08400
H376        H  0.00425363  0.21175096  0.68942032     0.05900
H377        H  0.45128096  0.12365823  0.63379954     0.05800
C378        C  0.49841653  0.14499818  0.86488100     0.02800
C379        C  0.46845129  0.14240765  0.85450789    -0.13300
C380        C  0.46820195  0.16967276  0.84137001     0.00300
C381        C  0.99843143  0.19924443  0.84123349    -0.11900
C382        C  0.02860949  0.19982251  0.84369293     0.02800
C383        C  0.02865689  0.17270665  0.85701823    -0.11300
H384        H  0.44586495  0.11933699  0.85666849     0.08400
H385        H  0.99870407  0.22130259  0.83381373     0.05900
H386        H  0.05168499  0.17294142  0.86083799     0.05800
O387        O  0.02402281  0.47080584  0.53882202    -0.85700
O388        O  0.45761713  0.43450661  0.52542777    -0.82700
C389        C  0.44112635  0.44395345  0.54175176     0.97800
O390        O  0.44331127  0.47121716  0.53688257    -0.82700
O391        O  0.47694620  0.03716785  0.52589607    -0.85400
C392        C  0.00213145  0.05072321  0.54391490     1.02300
O393        O  0.02666164  0.04684860  0.53947767    -0.78200
O394        O  0.06273129  0.01788148  0.51996786    -0.78300
C395        C  0.05320726  0.99484109  0.53961216     1.02300
O396        O  0.03842756  0.47560710  0.97041726    -0.85700
O397        O  0.47215474  0.44273665  0.95848971    -0.82700
C398        C  0.44444670  0.44044570  0.95371392     0.97800
O399        O  0.43538926  0.45748226  0.96959492    -0.82800
O400        O  0.47162958  0.02315990  0.95743986    -0.85400
C401        C  0.99569653  0.05154987  0.95628127     1.02300
O402        O  0.01948494  0.06037721  0.97545562    -0.78200
O403        O  0.04824545  0.02419930  0.95649902    -0.78300
C404        C  0.05207312  0.50005981  0.95201356     1.02300
Cr405      Cr  0.49812759  0.45899239  0.49840159     1.93700
Cr406      Cr  0.46008464  0.49733274  0.99722521     1.93200
Cr407      Cr  0.03570949  0.03393773  0.99823390     1.39100
O408        O  0.49760498  0.49636310  0.49785650    -1.23400
C409        C  0.49854059  0.12019487  0.88639448    -0.06400
C410        C  0.01342402  0.13087425  0.91648506    -0.17600
C411        C  0.01183241  0.10918545  0.93978247     0.10800
C412        C  0.99602608  0.07531322  0.93297052    -0.06400
C413        C  0.48098449  0.06449174  0.90282445    -0.17600
C414        C  0.48229896  0.08635890  0.87950061     0.10800
S415        S  0.02837824  0.12640152  0.97841567    -0.32600
S416        S  0.46398194  0.06966076  0.84119248    -0.32600
H417        H  0.48491443  0.09767197  0.82355418     0.28800
H418        H  0.00164272  0.10160142  0.99521395     0.28800
H419        H  0.02513142  0.15664678  0.92237425     0.19400
H420        H  0.46889502  0.03867359  0.89713681     0.19400
C421        C  0.50494485  0.12152864  0.61102725    -0.06400
C422        C  0.48330558  0.08801548  0.61621826    -0.17600
C423        C  0.48249347  0.06415834  0.59551439     0.10800
C424        C  0.00406528  0.07380535  0.56880561    -0.06400
C425        C  0.02640849  0.10699842  0.56421773    -0.17600
C426        C  0.02662123  0.13089256  0.58421726     0.10800
S427        S  0.45427940  0.02189215  0.60445170    -0.32600
S428        S  0.05273467  0.17277574  0.57244259    -0.32600
H429        H  0.03046797  0.18313218  0.58176002     0.28800
H430        H  0.47372927  0.00974748  0.59123702     0.28800
H431        H  0.46704424  0.08032009  0.63668665     0.19400
H432        H  0.04273983  0.11450116  0.54381773     0.19400
C433        C  0.07698799  0.99523398  0.56324113    -0.06400
C434        C  0.10947079  0.50589393  0.55423128    -0.17600
C435        C  0.13300021  0.50607452  0.57503562     0.10800
C436        C  0.12394954  0.49504451  0.60662002    -0.06400
C437        C  0.09161583  0.98520660  0.61601008    -0.17600
C438        C  0.06830113  0.98558953  0.59525446     0.10800
S439        S  0.17412986  0.52070477  0.55985179    -0.32600
S440        S  0.02897515  0.97624921  0.61181932    -0.32600
H441        H  0.02532959  0.99910068  0.59350232     0.28800
H442        H  0.18204195  0.50184555  0.57989180     0.28800
H443        H  0.11664581  0.51410045  0.52994895     0.19400
H444        H  0.08492874  0.97835467  0.64066527     0.19400
C445        C  0.07601336  0.50198573  0.92812344    -0.06400
C446        C  0.10990463  0.02321650  0.93474755    -0.17600
C447        C  0.13424936  0.02386604  0.91482055     0.10800
C448        C  0.12488062  0.50401231  0.88699375    -0.06400
C449        C  0.09113235  0.48314249  0.88046187    -0.17600
C450        C  0.06666419  0.48187021  0.90074483     0.10800
S451        S  0.17657031  0.04883286  0.92740977    -0.32600
S452        S  0.02409665  0.45412162  0.89055911    -0.32600
H453        H  0.01141856  0.47283683  0.90422570     0.28800
H454        H  0.18702883  0.02713777  0.91688141     0.28800
H455        H  0.11727712  0.03834360  0.95605741     0.19400
H456        H  0.08380368  0.46758534  0.85946921     0.19400
C457        C  0.42155192  0.41665413  0.92995722    -0.06400
C458        C  0.40819037  0.42740874  0.90617520    -0.17600
C459        C  0.38589857  0.40568561  0.88347140     0.10800
C460        C  0.37500651  0.37186211  0.88555268    -0.06400
C461        C  0.38929376  0.36141665  0.90879801    -0.17600
C462        C  0.41238163  0.38329616  0.93077443     0.10800
S463        S  0.37386750  0.42307965  0.85159997    -0.32600
S464        S  0.42780560  0.36670831  0.96033015    -0.32600
H465        H  0.42612587  0.38532597  0.98570554     0.28800
H466        H  0.36927135  0.39925337  0.82874198     0.28800
H467        H  0.41581950  0.45311077  0.90481116     0.19400
H468        H  0.38138909  0.33569766  0.91076472     0.19400
C469        C  0.41874629  0.42251605  0.56680465    -0.06400
C470        C  0.43185438  0.42338428  0.59704237    -0.17600
C471        C  0.41181091  0.40389384  0.62190801     0.10800
C472        C  0.37781253  0.38219494  0.61633162    -0.06400
C473        C  0.36452213  0.38206772  0.58626779    -0.17600
C474        C  0.38456497  0.40186487  0.56150974     0.10800
S475        S  0.43089533  0.40875954  0.66044120    -0.32600
S476        S  0.36500924  0.39964025  0.52381910    -0.32600
H477        H  0.39196046  0.40513957  0.50476704     0.28800
H478        H  0.40263983  0.40166753  0.67833128     0.28800
H479        H  0.45781938  0.43983519  0.60146719     0.19400
H480        H  0.33847392  0.36574392  0.58176772     0.19400
C481        C  0.16086957  0.39011724  0.72061510    -0.06400
C482        C  0.19062592  0.41977048  0.72034382    -0.17600
C483        C  0.19504756  0.44567244  0.70100264     0.10800
C484        C  0.16732222  0.44481096  0.68596314    -0.06400
C485        C  0.13691408  0.41548157  0.68771664    -0.17600
C486        C  0.13374548  0.38792757  0.70337484     0.10800
S487        S  0.23732635  0.47655905  0.69360269    -0.32600
S488        S  0.09395689  0.35160303  0.70043665    -0.32600
H489        H  0.10036941  0.33392195  0.72279815     0.28800
H490        H  0.23158276  0.98263484  0.66172487     0.28800
H491        H  0.21137385  0.42205695  0.73386835     0.19400
H492        H  0.11504042  0.41370573  0.67696686     0.19400
C493        C  0.16677530  0.43918177  0.82962395    -0.06400
C494        C  0.13692416  0.41817304  0.81402358    -0.17600
C495        C  0.13303396  0.39119607  0.79658106     0.10800
C496        C  0.16009236  0.38604186  0.79294215    -0.06400
C497        C  0.18879899  0.40518221  0.81084331    -0.17600
C498        C  0.19232139  0.43139150  0.82941150     0.10800
S499        S  0.09259728  0.36344067  0.78126439    -0.32600
S500        S  0.22985289  0.45377115  0.85226414    -0.32600
H501        H  0.21636009  0.46521165  0.87558142     0.28800
H502        H  0.09577708  0.33562424  0.78494877     0.28800
H503        H  0.11671346  0.42323427  0.81474965     0.19400
H504        H  0.20873163  0.39981871  0.81029636     0.19400
C505        C  0.26473317  0.32812202  0.83153149    -0.06400
C506        C  0.27450236  0.35765445  0.81559846    -0.17600
C507        C  0.25264893  0.36193286  0.79610070     0.10800
C508        C  0.22035536  0.33549353  0.79104601    -0.06400
C509        C  0.21029930  0.30640700  0.80769413    -0.17600
C510        C  0.23150772  0.30284064  0.82867844     0.10800
S511        S  0.26820608  0.40185540  0.77899974    -0.32600
S512        S  0.21427942  0.26577206  0.85160068    -0.32600
H513        H  0.23754794  0.27889815  0.87649052     0.28800
H514        H  0.23826227  0.39794539  0.76777630     0.28800
H515        H  0.29983255  0.37735246  0.81741260     0.19400
H516        H  0.18565901  0.28606959  0.80418923     0.19400
C517        C  0.27598609  0.33526455  0.68644058    -0.06400
C518        C  0.27593361  0.36486091  0.68940301    -0.17600
C519        C  0.24931771  0.36622934  0.70311388     0.10800
C520        C  0.22362652  0.33843667  0.71806912    -0.06400
C521        C  0.22284530  0.30861592  0.71409775    -0.17600
C522        C  0.24740575  0.30636187  0.69688080     0.10800
S523        S  0.24915538  0.40377365  0.69909386    -0.32600
S524        S  0.23881268  0.26567772  0.68672454    -0.32600
H525        H  0.25650939  0.27466910  0.65791137     0.28800
H526        H  0.21721243  0.38819004  0.68597862     0.28800
H527        H  0.29663242  0.38728864  0.68081020     0.19400
H528        H  0.20221735  0.28660240  0.72331853     0.19400
C529        C  0.10752522  0.27575090  0.78790913    -0.06400
C530        C  0.11481685  0.26725768  0.81790662    -0.17600
C531        C  0.09006247  0.24352417  0.83742570     0.10800
C532        C  0.05736098  0.22579968  0.82588896    -0.06400
C533        C  0.05061163  0.23355882  0.79562199    -0.17600
C534        C  0.07402232  0.25993502  0.77825430     0.10800
S535        S  0.10166450  0.23836924  0.87699097    -0.32600
S536        S  0.05870540  0.27521072  0.74722574    -0.32600
H537        H  0.02520692  0.25091579  0.74812675     0.28800
H538        H  0.07130078  0.23035744  0.89122055     0.28800
H539        H  0.13973234  0.27981805  0.82700559     0.19400
H540        H  0.02608052  0.21962828  0.78594171     0.19400
C541        C  0.06569919  0.22291855  0.67833388    -0.06400
C542        C  0.08211694  0.21635498  0.70258064    -0.17600
C543        C  0.10799504  0.24167602  0.71981130     0.10800
C544        C  0.11702604  0.27456596  0.71332986    -0.06400
C545        C  0.10348875  0.28083926  0.68617491    -0.17600
C546        C  0.07761439  0.25552576  0.66903960     0.10800
S547        S  0.12814425  0.22974330  0.74914849    -0.32600
S548        S  0.05963312  0.26655106  0.63678554    -0.32600
H549        H  0.04745144  0.23713248  0.61960615     0.28800
H550        H  0.15622749  0.26043529  0.75323471     0.28800
H551        H  0.07388491  0.19126024  0.70893489     0.19400
H552        H  0.11143224  0.30567019  0.67942372     0.19400
C553        C  0.38980111  0.16561735  0.78230716    -0.06400
C554        C  0.38145076  0.14570521  0.80950081    -0.17600
C555        C  0.40579521  0.14736018  0.83042495     0.10800
C556        C  0.43962687  0.16741596  0.82268717    -0.06400
C557        C  0.44727647  0.18673746  0.79508354    -0.17600
C558        C  0.42338744  0.18814642  0.77671671     0.10800
S559        S  0.39167312  0.12513691  0.86717631    -0.32600
S560        S  0.43856582  0.22188602  0.74920383    -0.32600
H561        H  0.40946351  0.22339550  0.74660061     0.28800
H562        H  0.41862131  0.14808952  0.88543959     0.28800
H563        H  0.35568450  0.12926382  0.81492963     0.19400
H564        H  0.47244440  0.20219961  0.78781660     0.19400
C565        C  0.38817599  0.16028215  0.70819918    -0.06400
C566        C  0.40435640  0.18366478  0.68426521    -0.17600
C567        C  0.43149185  0.18572763  0.66783008     0.10800
C568        C  0.44236884  0.16341242  0.67473646    -0.06400
C569        C  0.42456969  0.13837325  0.69653606    -0.17600
C570        C  0.39756185  0.13636592  0.71320342     0.10800
S571        S  0.45195648  0.21810669  0.63928504    -0.32600
S572        S  0.37545827  0.10287361  0.74030602    -0.32600
H573        H  0.39328023  0.08665785  0.73427692     0.28800
H574        H  0.96515801  0.20197592  0.62053477     0.28800
H575        H  0.39718337  0.20183047  0.67974604     0.19400
H576        H  0.43280205  0.12108498  0.70139536     0.19400
C577        C  0.34426246  0.22837771  0.71133351    -0.06400
C578        C  0.36935568  0.25960021  0.72110559    -0.17600
C579        C  0.37092296  0.28813831  0.70946223     0.10800
C580        C  0.34783344  0.28559071  0.68632761    -0.06400
C581        C  0.32448222  0.25469134  0.67480829    -0.17600
C582        C  0.32216496  0.22613654  0.68709054     0.10800
S583        S  0.40168679  0.32658965  0.72641436    -0.32600
S584        S  0.28866094  0.18743944  0.67361373    -0.32600
H585        H  0.27492206  0.19943607  0.65133711     0.28800
H586        H  0.38499604  0.34396839  0.72119901     0.28800
H587        H  0.38655211  0.26171204  0.73954335     0.19400
H588        H  0.30675429  0.25302516  0.65720157     0.19400
C589        C  0.33308660  0.22103095  0.78318259    -0.06400
C590        C  0.31131781  0.23128295  0.77260801    -0.17600
C591        C  0.30966918  0.25685912  0.78739655     0.10800
C592        C  0.32609551  0.26967554  0.81692855    -0.06400
C593        C  0.34567723  0.25729628  0.82919200    -0.17600
C594        C  0.35030331  0.23418567  0.81218647     0.10800
S595        S  0.28895904  0.27373681  0.76489155    -0.32600
S596        S  0.37983974  0.22417754  0.82806796    -0.32600
H597        H  0.39511179  0.22762819  0.79852062     0.28800
H598        H  0.31233976  0.30638255  0.77217318     0.28800
H599        H  0.29687405  0.22068795  0.75117881     0.19400
H600        H  0.35830528  0.26630932  0.85177645     0.19400
C601        C  0.27654075  0.10973492  0.77839365    -0.06400
C602        C  0.26573955  0.11644139  0.80730795    -0.17600
C603        C  0.24180784  0.09128020  0.82621283     0.10800
C604        C  0.22497071  0.05875122  0.81431589    -0.06400
C605        C  0.23482541  0.05276260  0.78449626    -0.17600
C606        C  0.26231135  0.07670261  0.76862221     0.10800
S607        S  0.23666358  0.10226171  0.86608276    -0.32600
S608        S  0.28027000  0.06170755  0.73981004    -0.32600
H609        H  0.31162538  0.08934780  0.74085638     0.28800
H610        H  0.23439585  0.07416394  0.87987331     0.28800
H611        H  0.27695414  0.14135882  0.81596784     0.19400
H612        H  0.22255121  0.02848525  0.77416366     0.19400
C613        C  0.27506671  0.11854624  0.70564335    -0.06400
C614        C  0.28090615  0.10274910  0.68016477    -0.17600
C615        C  0.25464485  0.07653633  0.66437520     0.10800
C616        C  0.22193077  0.06628920  0.67392856    -0.06400
C617        C  0.21603452  0.08483295  0.69636893    -0.17600
C618        C  0.24238823  0.11144089  0.71185838     0.10800
S619        S  0.26449337  0.05534188  0.63426214    -0.32600
S620        S  0.23419200  0.13624192  0.73921364    -0.32600
H621        H  0.19988757  0.12052322  0.73410376     0.28800
H622        H  0.23491376  0.04341161  0.61696798     0.28800
H623        H  0.30597157  0.10891069  0.67442082     0.19400
H624        H  0.19083222  0.07744028  0.70282944     0.19400
C625        C  0.33580167  0.66790076  0.21364504     0.45100
H626        H  0.33660818  0.66884590  0.18721157    -0.03900
C627        C  0.33402913  0.66560285  0.27562000     0.45200
H628        H  0.33317023  0.66449810  0.30199558    -0.03900
C629        C  0.33932035  0.69902730  0.22937380    -0.17600
C630        C  0.30325128  0.64010452  0.22699033    -0.17300
C631        C  0.36325691  0.66296478  0.22833785    -0.17700
C632        C  0.33731911  0.69736706  0.26228948    -0.17700
C633        C  0.30309644  0.63764016  0.25973884    -0.17200
C634        C  0.36319577  0.66351823  0.26127828    -0.17600
C635        C  0.16512958  0.83528961  0.22209181     0.45100
H636        H  0.16631044  0.83670094  0.19568727    -0.03900
C637        C  0.16299845  0.83226443  0.28395158     0.45200
H638        H  0.16265050  0.83179712  0.31040140    -0.03900
C639        C  0.13740807  0.80222417  0.23501062    -0.17600
C640        C  0.19685738  0.83873485  0.23693686    -0.17300
C641        C  0.15994580  0.86208648  0.23826753    -0.17700
C642        C  0.13486730  0.80154617  0.26799796    -0.17700
C643        C  0.19541450  0.83669380  0.26970421    -0.17200
C644        C  0.15950098  0.86043530  0.27095420    -0.17600
C645        C  0.35547218  0.85778842  0.13963406     0.02800
C646        C  0.32611365  0.85693652  0.14935770    -0.13300
C647        C  0.30560951  0.83475604  0.17284449     0.00300
C648        C  0.31535121  0.81370986  0.18607894    -0.11900
C649        C  0.34298548  0.81254429  0.17508313     0.02800
C650        C  0.36331738  0.83488373  0.15210869    -0.11300
H651        H  0.31951892  0.87367192  0.13860934     0.08400
H652        H  0.30085477  0.79721235  0.20459186     0.05900
H653        H  0.38469126  0.83396458  0.14341948     0.05800
C654        C  0.34783935  0.84715813  0.36517926     0.02800
C655        C  0.35062989  0.82163931  0.35061902    -0.13300
C656        C  0.32359811  0.79606145  0.33440473     0.00300
C657        C  0.29355574  0.79595706  0.33413254    -0.11900
C658        C  0.29155648  0.82310474  0.34443840     0.02800
C659        C  0.31822930  0.84786201  0.36147883    -0.11300
H660        H  0.37405752  0.82217564  0.35148439     0.08400
H661        H  0.27224884  0.77578406  0.32312102     0.05900
H662        H  0.31597777  0.86788502  0.37134307     0.05800
C663        C  0.14985307  0.00239100  0.36559647     0.02800
C664        C  0.17461097  0.53122120  0.35066181    -0.13300
C665        C  0.19950648  0.53008835  0.33253534     0.00300
C666        C  0.19817079  0.49979101  0.32907390    -0.11900
C667        C  0.17182353  0.97043050  0.34112558     0.02800
C668        C  0.14816317  0.97229599  0.36004856    -0.11300
H669        H  0.17396425  0.55370541  0.35283157     0.08400
H670        H  0.21684560  0.49797191  0.31542214     0.05900
H671        H  0.12820060  0.95020728  0.37018873     0.05800
C672        C  0.14775477  0.99836041  0.13149168     0.02800
C673        C  0.17249765  0.53016898  0.14068744    -0.13300
C674        C  0.19427317  0.53365122  0.16514788     0.00300
C675        C  0.19050422  0.00574676  0.18146614    -0.11900
C676        C  0.16825925  0.97398884  0.17050918     0.02800
C677        C  0.14653613  0.97068984  0.14535521    -0.10800
H678        H  0.17442445  0.55165893  0.12949734     0.08400
H679        H  0.20557490  0.00952785  0.20233873     0.05900
H680        H  0.12870974  0.94684932  0.13621593     0.05800
C681        C  0.50445004  0.64580034  0.13315682     0.02800
C682        C  0.03437335  0.67114786  0.14595236    -0.13300
C683        C  0.03428679  0.69542579  0.16526376     0.00300
C684        C  0.00420779  0.69329881  0.17354049    -0.11900
C685        C  0.47384923  0.66720171  0.16223588     0.02800
C686        C  0.47430424  0.64351717  0.14216774    -0.11300
H687        H  0.05764300  0.67245833  0.14034382     0.08400
H688        H  0.00406314  0.71149162  0.18932606     0.05900
H689        H  0.45118359  0.62349653  0.13342633     0.05800
C690        C  0.49850046  0.64431134  0.36423508     0.02800
C691        C  0.46851672  0.64177091  0.35396280    -0.13300
C692        C  0.46827058  0.66911698  0.34101016     0.00300
C693        C  0.99851156  0.69945462  0.34130384    -0.11900
C694        C  0.02861637  0.69988765  0.34379734     0.02800
C695        C  0.02853566  0.67272760  0.35717200    -0.11300
H696        H  0.44591525  0.61870378  0.35609474     0.08400
H697        H  0.99888760  0.72154438  0.33381495     0.05900
H698        H  0.05151154  0.67285498  0.36097721     0.05800
O699        O  0.02370959  0.97091478  0.03899419    -0.85700
O700        O  0.45777626  0.93478627  0.02514092    -0.82700
C701        C  0.44125347  0.94413054  0.04153941     0.97800
O702        O  0.44353150  0.97146525  0.03690350    -0.82700
O703        O  0.47707153  0.53724896  0.02554837    -0.85400
C704        C  0.00174796  0.55052287  0.04384025     1.02300
O705        O  0.02630980  0.54670247  0.03943606    -0.78200
O706        O  0.06246958  0.51783726  0.02004306    -0.78300
C707        C  0.05300267  0.49500994  0.03992611     1.02300
O708        O  0.03874448  0.97587008  0.47000852    -0.85700
O709        O  0.47213222  0.94292550  0.45845507    -0.82700
C710        C  0.44440984  0.94060737  0.45370648     0.97800
O711        O  0.43526045  0.95746909  0.46976762    -0.82800
O712        O  0.47152587  0.52259669  0.45718373    -0.85400
C713        C  0.99571255  0.55152154  0.45639744     1.02300
O714        O  0.01961557  0.56035148  0.47544078    -0.78200
O715        O  0.04839339  0.52427256  0.45641695    -0.78300
C716        C  0.05252431  0.00042077  0.45175241     1.02300
Cr717      Cr  0.49829114  0.95937877  0.99816477     1.93700
Cr718      Cr  0.45997213  0.99728113  0.49748704     1.93200
Cr719      Cr  0.03596707  0.53399983  0.49820383     1.39100
O720        O  0.49780927  0.99677292  0.99777749    -1.23400
C721        C  0.49865250  0.61952858  0.38577977    -0.06400
C722        C  0.01356580  0.63092508  0.41652576    -0.17600
C723        C  0.01214229  0.60925116  0.43976703     0.10800
C724        C  0.99597405  0.57531874  0.43311085    -0.06400
C725        C  0.48105955  0.56384742  0.40237076    -0.17600
C726        C  0.48243426  0.58567789  0.37895420     0.10800
S727        S  0.02951921  0.62663288  0.47812587    -0.32600
S728        S  0.46422518  0.56892691  0.34062549    -0.32600
H729        H  0.48509575  0.59696530  0.32299232     0.28800
H730        H  0.00282583  0.60222561  0.49530143     0.28800
H731        H  0.02553215  0.65673016  0.42233485     0.19400
H732        H  0.46896479  0.53801619  0.39674344     0.19400
C733        C  0.50486585  0.62145115  0.11064193    -0.06400
C734        C  0.48337543  0.58793011  0.11591870    -0.17600
C735        C  0.48262439  0.56411039  0.09522036     0.10800
C736        C  0.00366095  0.57360273  0.06865870    -0.06400
C737        C  0.02609499  0.60677271  0.06410416    -0.17600
C738        C  0.02627470  0.63066983  0.08405162     0.10800
S739        S  0.45457304  0.52181560  0.10420479    -0.32600
S740        S  0.05239716  0.67254881  0.07226096    -0.32600
H741        H  0.03012373  0.68290784  0.08154886     0.28800
H742        H  0.47407572  0.50977092  0.09091073     0.28800
H743        H  0.46718631  0.58020730  0.13644142     0.19400
H744        H  0.04249034  0.61425401  0.04375118     0.19400
C745        C  0.07680879  0.49558197  0.06362909    -0.06400
C746        C  0.10877680  0.00496002  0.05445951    -0.17600
C747        C  0.13213281  0.00502680  0.07542471     0.10800
C748        C  0.12317007  0.99499728  0.10727070    -0.06400
C749        C  0.09128605  0.48530212  0.11636237    -0.17600
C750        C  0.06802772  0.48577064  0.09559453     0.10800
S751        S  0.17296408  0.01828413  0.06012451    -0.32600
S752        S  0.02863308  0.47629754  0.11208370    -0.32600
H753        H  0.02507365  0.49928184  0.09390201     0.28800
H754        H  0.18039370  0.99948446  0.08074872     0.28800
H755        H  0.11585990  0.01238796  0.02998209     0.19400
H756        H  0.08451740  0.47828566  0.14097252     0.19400
C757        C  0.07638591  0.00226282  0.42779190    -0.06400
C758        C  0.11006776  0.52359123  0.43445819    -0.17600
C759        C  0.13442036  0.52428268  0.41452890     0.10800
C760        C  0.12508324  0.00368977  0.38680761    -0.06400
C761        C  0.09131033  0.98291290  0.38034286    -0.17600
C762        C  0.06692794  0.98194330  0.40054765     0.10800
S763        S  0.17672783  0.54945774  0.42705833    -0.32600
S764        S  0.02431549  0.95433687  0.39040977    -0.32600
H765        H  0.01184044  0.97330634  0.40389092     0.28800
H766        H  0.18727243  0.52776401  0.41675078     0.28800
H767        H  0.11742692  0.53880347  0.45571037     0.19400
H768        H  0.08389269  0.96722049  0.35944505     0.19400
C769        C  0.42162924  0.91696133  0.42977383    -0.06400
C770        C  0.40833152  0.92782528  0.40601861    -0.17600
C771        C  0.38623744  0.90622583  0.38310380     0.10800
C772        C  0.37543089  0.87241070  0.38497852    -0.06400
C773        C  0.38969549  0.86188124  0.40816204    -0.17600
C774        C  0.41263783  0.88364216  0.43030169     0.10800
S775        S  0.37438774  0.92375319  0.35120859    -0.32600
S776        S  0.42816714  0.86693242  0.45962715    -0.32600
H777        H  0.42656527  0.88540096  0.48518623     0.28800
H778        H  0.36989881  0.90001316  0.32828888     0.28800
H779        H  0.41588669  0.95351792  0.40482165     0.19400
H780        H  0.38189268  0.83617213  0.40994453     0.19400
C781        C  0.41869338  0.92246815  0.06636277    -0.06400
C782        C  0.43161319  0.92292762  0.09659595    -0.17600
C783        C  0.41136414  0.90326012  0.12126782     0.10800
C784        C  0.37737221  0.88171713  0.11546402    -0.06400
C785        C  0.36428842  0.88196573  0.08539597    -0.17600
C786        C  0.38451531  0.90199889  0.06085672     0.10800
S787        S  0.43017083  0.90776067  0.15988782    -0.32600
S788        S  0.36517401  0.90031033  0.02317627    -0.32600
H789        H  0.39217044  0.90591344  0.00416383     0.28800
H790        H  0.40184228  0.90074214  0.17761943     0.28800
H791        H  0.45758844  0.93921358  0.10118397     0.19400
H792        H  0.33825026  0.86577291  0.08072032     0.19400
C793        C  0.16067767  0.88983392  0.22050662    -0.06400
C794        C  0.19041013  0.91951585  0.22021606    -0.17600
C795        C  0.19467487  0.94553192  0.20112700     0.10800
C796        C  0.16684483  0.94471530  0.18634806    -0.06400
C797        C  0.13647288  0.91534163  0.18814066    -0.17600
C798        C  0.13344068  0.88771105  0.20353679     0.10800
S799        S  0.23690515  0.97648920  0.19365693    -0.32600
S800        S  0.09368498  0.85134681  0.20057802    -0.32600
H801        H  0.10018793  0.83358311  0.22276848     0.28800
H802        H  0.23119012  0.48229094  0.16097123     0.28800
H803        H  0.21126025  0.92175364  0.23351819     0.19400
H804        H  0.11451837  0.91357277  0.17759995     0.19400
C805        C  0.16675184  0.93857907  0.32953454    -0.06400
C806        C  0.13678857  0.91739074  0.31420404    -0.17600
C807        C  0.13292544  0.89046137  0.29670032     0.10800
C808        C  0.16008637  0.88551707  0.29278308    -0.06400
C809        C  0.18889409  0.90477466  0.31049444    -0.17600
C810        C  0.19242176  0.93096428  0.32908406     0.10800
S811        S  0.09244493  0.86256315  0.28156614    -0.32600
S812        S  0.23016172  0.95360586  0.35157894    -0.32600
H813        H  0.21681225  0.96509816  0.37499140     0.28800
H814        H  0.09583217  0.83484961  0.28505396     0.28800
H815        H  0.11649332  0.92231797  0.31511902     0.19400
H816        H  0.20891577  0.89954873  0.30974690     0.19400
C817        C  0.26503103  0.82832815  0.33103454    -0.06400
C818        C  0.27464463  0.85767864  0.31483695    -0.17600
C819        C  0.25265743  0.86168332  0.29528540     0.10800
C820        C  0.22039359  0.83512467  0.29040825    -0.06400
C821        C  0.21048383  0.80621523  0.30734625    -0.17600
C822        C  0.23182910  0.80295594  0.32841846     0.10800
S823        S  0.26801505  0.90145604  0.27792042    -0.32600
S824        S  0.21485389  0.76617487  0.35176884    -0.32600
H825        H  0.23827165  0.77966436  0.37650589     0.28800
H826        H  0.23794528  0.89743697  0.26696517     0.28800
H827        H  0.29995684  0.87744441  0.31649653     0.19400
H828        H  0.18586113  0.78579559  0.30401836     0.19400
C829        C  0.27515870  0.83442413  0.18509493    -0.06400
C830        C  0.27520979  0.86406859  0.18815913    -0.17600
C831        C  0.24876368  0.86553860  0.20215327     0.10800
C832        C  0.22318532  0.83780581  0.21728406    -0.06400
C833        C  0.22223840  0.80792215  0.21313769    -0.17600
C834        C  0.24659580  0.80556957  0.19564941     0.10800
S835        S  0.24867857  0.90314872  0.19832923    -0.32600
S836        S  0.23777673  0.76484278  0.18534221    -0.32600
H837        H  0.25542612  0.77383629  0.15650197     0.28800
H838        H  0.21662350  0.88766655  0.18548655     0.28800
H839        H  0.29587736  0.88646772  0.17947930     0.19400
H840        H  0.20163215  0.78594030  0.22243283     0.19400
C841        C  0.10746271  0.77537813  0.28761076    -0.06400
C842        C  0.11485468  0.76690951  0.31757789    -0.17600
C843        C  0.09014557  0.74332358  0.33724578     0.10800
C844        C  0.05737233  0.72570022  0.32587417    -0.06400
C845        C  0.05054828  0.73337675  0.29560439    -0.17600
C846        C  0.07390750  0.75968789  0.27816254     0.10800
S847        S  0.10194674  0.73817622  0.37672655    -0.32600
S848        S  0.05845215  0.77471657  0.24704641    -0.32600
H849        H  0.02446784  0.75478944  0.25288948     0.28800
H850        H  0.07167469  0.73019757  0.39113883     0.28800
H851        H  0.13981691  0.77938303  0.32654488     0.19400
H852        H  0.02604594  0.71938054  0.28587450     0.19400
C853        C  0.06543701  0.72260380  0.17803583    -0.06400
C854        C  0.08199353  0.71604458  0.20214053    -0.17600
C855        C  0.10785058  0.74136853  0.21937323     0.10800
C856        C  0.11675175  0.77423791  0.21297856    -0.06400
C857        C  0.10309453  0.78052049  0.18592351    -0.17600
C858        C  0.07719910  0.75520479  0.16883168     0.10800
S859        S  0.12810372  0.72945262  0.24861665    -0.32600
S860        S  0.05894786  0.76620166  0.13679762    -0.32600
H861        H  0.04687416  0.73686828  0.11948823     0.28800
H862        H  0.15608025  0.76018415  0.25289639     0.28800
H863        H  0.07385501  0.69095006  0.20841741     0.19400
H864        H  0.11093879  0.80534949  0.17924792     0.19400
C865        C  0.38997678  0.66562235  0.28217615    -0.06400
C866        C  0.38156511  0.64565081  0.30933902    -0.17600
C867        C  0.40588167  0.64708124  0.33017096     0.10800
C868        C  0.43971863  0.66701388  0.32239777    -0.06400
C869        C  0.44741917  0.68643066  0.29485257    -0.17600
C870        C  0.42358351  0.68801060  0.27654940     0.10800
S871        S  0.39174638  0.62471294  0.36684380    -0.32600
S872        S  0.43886214  0.72173559  0.24900890    -0.32600
H873        H  0.40982065  0.72335653  0.24635174     0.28800
H874        H  0.41879292  0.64748193  0.38512374     0.28800
H875        H  0.35578309  0.62930783  0.31478886     0.19400
H876        H  0.47258495  0.70181908  0.28758049     0.19400
C877        C  0.38822636  0.66016905  0.20804717    -0.06400
C878        C  0.40430619  0.68348100  0.18403124    -0.17600
C879        C  0.43137076  0.68549604  0.16750392     0.10800
C880        C  0.44228458  0.66321577  0.17442027    -0.06400
C881        C  0.42459760  0.63825254  0.19631247    -0.17600
C882        C  0.39766284  0.63628825  0.21307267     0.10800
S883        S  0.45170512  0.71776849  0.13882872    -0.32600
S884        S  0.37576063  0.60290791  0.24033361    -0.32600
H885        H  0.39360782  0.58671900  0.23429634     0.28800
H886        H  0.96542599  0.70216514  0.12065876     0.28800
H887        H  0.39710075  0.70162100  0.17950048     0.19400
H888        H  0.43287968  0.62100400  0.20118002     0.19400
C889        C  0.34407667  0.72804199  0.21068362    -0.06400
C890        C  0.36932345  0.75938421  0.21994336    -0.17600
C891        C  0.37069196  0.78776252  0.20807728     0.10800
C892        C  0.34719991  0.78490034  0.18525500    -0.06400
C893        C  0.32367242  0.75385089  0.17423281    -0.17600
C894        C  0.32159310  0.72547884  0.18671352     0.10800
S895        S  0.40168762  0.82643286  0.22443070    -0.32600
S896        S  0.28781429  0.68663358  0.17397043    -0.32600
H897        H  0.27490900  0.69824547  0.15043306     0.28800
H898        H  0.38477820  0.84363985  0.21946396     0.28800
H899        H  0.38680092  0.76173159  0.23817828     0.19400
H900        H  0.30560231  0.75192963  0.15690589     0.19400
C901        C  0.33352285  0.72146868  0.28267398    -0.06400
C902        C  0.31189299  0.73187465  0.27200606    -0.17600
C903        C  0.31039113  0.75757180  0.28670827     0.10800
C904        C  0.32675506  0.77033067  0.31626102    -0.06400
C905        C  0.34623524  0.75787810  0.32859605    -0.17600
C906        C  0.35075487  0.73465848  0.31167396     0.10800
S907        S  0.28988928  0.77464658  0.26416052    -0.32600
S908        S  0.38014305  0.72452533  0.32770956    -0.32600
H909        H  0.39532275  0.72762959  0.29817304     0.28800
H910        H  0.31325988  0.80724636  0.27162316     0.28800
H911        H  0.29738117  0.72125175  0.25062514     0.19400
H912        H  0.35883729  0.76689313  0.35119276     0.19400
C913        C  0.27703771  0.60990320  0.27867543    -0.06400
C914        C  0.26623733  0.61663261  0.30757410    -0.17600
C915        C  0.24232082  0.59147528  0.32648981     0.10800
C916        C  0.22552931  0.55893495  0.31461486    -0.06400
C917        C  0.23546796  0.55292046  0.28485806    -0.17600
C918        C  0.26293339  0.57686088  0.26899323     0.10800
S919        S  0.23709974  0.60248506  0.36631825    -0.32600
S920        S  0.28097197  0.56188006  0.24025225    -0.32600
H921        H  0.31219749  0.58968784  0.24108325     0.28800
H922        H  0.23477229  0.57437556  0.38014058     0.28800
H923        H  0.27739349  0.64156505  0.31617947     0.19400
H924        H  0.22323717  0.52864215  0.27453067     0.19400
C925        C  0.27501904  0.61824549  0.20596417    -0.06400
C926        C  0.28074607  0.60236825  0.18048467    -0.17600
C927        C  0.25442224  0.57613502  0.16478718     0.10800
C928        C  0.22174244  0.56596014  0.17441087    -0.06400
C929        C  0.21594233  0.58450845  0.19691907    -0.17600
C930        C  0.24235387  0.61111276  0.21234386     0.10800
S931        S  0.26416643  0.55487410  0.13465284    -0.32600
S932        S  0.23422936  0.63590730  0.23978036    -0.32600
H933        H  0.19988761  0.62009420  0.23489283     0.28800
H934        H  0.23448289  0.54277322  0.11750536     0.28800
H935        H  0.30578670  0.60851784  0.17464060     0.19400
H936        H  0.19076420  0.57714022  0.20345433     0.19400
C937        C  0.33551311  0.66795325  0.71387441     0.45100
H938        H  0.33631995  0.66888462  0.68743855    -0.03900
C939        C  0.33373219  0.66575926  0.77584847     0.45200
H940        H  0.33284749  0.66466271  0.80221601    -0.03900
C941        C  0.33892836  0.69904560  0.72955134    -0.17600
C942        C  0.30298398  0.64014041  0.72724584    -0.17300
C943        C  0.36303720  0.66314694  0.72861570    -0.17700
C944        C  0.33691937  0.69745732  0.76247251    -0.17700
C945        C  0.30286526  0.63769839  0.75999235    -0.17200
C946        C  0.36297333  0.66379897  0.76154994    -0.17600
C947        C  0.16509146  0.83582194  0.72169934     0.45100
H948        H  0.16634527  0.83722091  0.69529317    -0.03900
C949        C  0.16278306  0.83281943  0.78356680     0.45200
H950        H  0.16232834  0.83230465  0.81001747    -0.03900
C951        C  0.13733166  0.80274967  0.73458424    -0.17600
C952        C  0.19679627  0.83930511  0.73667223    -0.17300
C953        C  0.15986159  0.86263394  0.73779190    -0.17700
C954        C  0.13470934  0.80208394  0.76755909    -0.17700
C955        C  0.19526782  0.83728155  0.76943800    -0.17200
C956        C  0.15931960  0.86100289  0.77049274    -0.17600
C957        C  0.35556162  0.85795188  0.63987847     0.02800
C958        C  0.32638617  0.85739046  0.64979878    -0.13300
C959        C  0.30571729  0.83510914  0.67313905     0.00300
C960        C  0.31520177  0.81379645  0.68618398    -0.11900
C961        C  0.34266480  0.81240325  0.67503955     0.02800
C962        C  0.36299463  0.83463976  0.65201999    -0.11300
H963        H  0.32002992  0.87440016  0.63929405     0.08400
H964        H  0.30062160  0.79726859  0.70464204     0.05900
H965        H  0.38412778  0.83339704  0.64312907     0.05800
C966        C  0.34733370  0.84715428  0.86540115     0.02800
C967        C  0.35004594  0.82156948  0.85088681    -0.13300
C968        C  0.32302695  0.79606399  0.83459879     0.00300
C969        C  0.29305428  0.79607917  0.83417994    -0.11900
C970        C  0.29111145  0.82327552  0.84442243     0.02800
C971        C  0.31777589  0.84796709  0.86156651    -0.11300
H972        H  0.37342467  0.82200876  0.85180890     0.08400
H973        H  0.27178059  0.77595641  0.82308193     0.05900
H974        H  0.31555411  0.86801198  0.87140969     0.05800
C975        C  0.14962981  0.00268238  0.86581670     0.02800
C976        C  0.17462033  0.53116105  0.85089912    -0.13300
C977        C  0.19960379  0.53002145  0.83293954     0.00300
C978        C  0.19827933  0.49971771  0.82955852    -0.11900
C979        C  0.17162999  0.97090862  0.84099646     0.02800
C980        C  0.14800249  0.97264243  0.86007509    -0.11300
H981        H  0.17396155  0.55364503  0.85298903     0.08400
H982        H  0.21699598  0.49789914  0.81598210     0.05900
H983        H  0.12811501  0.95048555  0.87019098     0.05800
C984        C  0.14861521  0.99895686  0.63023114     0.02800
C985        C  0.17269885  0.52971132  0.64084834    -0.13300
C986        C  0.19441237  0.53333557  0.66541854     0.00300
C987        C  0.19097885  0.00635945  0.68058894    -0.11900
C988        C  0.16885712  0.97460314  0.66954214     0.02800
C989        C  0.14734893  0.97130011  0.64418123    -0.10800
H990        H  0.17455687  0.55114139  0.62958735     0.08400
H991        H  0.20589064  0.01013303  0.70158330     0.05900
H992        H  0.12960423  0.94745499  0.63498522     0.05800
C993        C  0.50411046  0.64576459  0.63327017     0.02800
C994        C  0.03402492  0.67133319  0.64603150    -0.13300
C995        C  0.03392625  0.69565626  0.66527135     0.00300
C996        C  0.00382564  0.69349161  0.67354039    -0.11900
C997        C  0.47380069  0.66723396  0.66280024     0.02800
C998        C  0.47406060  0.64354833  0.64257073    -0.11300
H999        H  0.05730886  0.67269125  0.64038399     0.08400
H1000       H  0.00366484  0.71173166  0.68924199     0.05900
H1001       H  0.45085714  0.62359066  0.63390809     0.05800
C1002       C  0.49822303  0.64473036  0.86444647     0.02800
C1003       C  0.46831411  0.64241757  0.85427551    -0.13300
C1004       C  0.46831132  0.66977075  0.84101692     0.00300
C1005       C  0.99834225  0.69923601  0.84037205    -0.11900
C1006       C  0.02842675  0.69960301  0.84270445     0.02800
C1007       C  0.02832944  0.67244250  0.85612891    -0.11300
H1008       H  0.44559749  0.61950214  0.85668544     0.08400
H1009       H  0.99872803  0.72134543  0.83294116     0.05900
H1010       H  0.05127854  0.67249908  0.85985466     0.05800
O1011       O  0.02415838  0.97114436  0.53803502    -0.85700
O1012       O  0.45796711  0.93484590  0.52537404    -0.82700
C1013       C  0.44143141  0.94419017  0.54174866     0.97800
O1014       O  0.44353316  0.97142757  0.53697526    -0.82700
O1015       O  0.47661300  0.53692096  0.52549504    -0.85400
C1016       C  0.00194220  0.55053580  0.54433903     1.02300
O1017       O  0.02648155  0.54664348  0.54009259    -0.78200
O1018       O  0.06259214  0.51764452  0.52091434    -0.78300
C1019       C  0.05304652  0.49453586  0.54049380     1.02300
O1020       O  0.03855508  0.97547062  0.97096604    -0.85700
O1021       O  0.47230963  0.94304537  0.95832849    -0.82700
C1022       C  0.44455212  0.94066200  0.95359449     0.97800
O1023       O  0.43538633  0.95751043  0.96966633    -0.82800
O1024       O  0.47171124  0.52309312  0.95721430    -0.85400
C1025       C  0.99527601  0.55156932  0.95592562     1.02300
O1026       O  0.01918258  0.56042165  0.97494897    -0.78200
O1027       O  0.04770462  0.52411983  0.95566983    -0.78300
C1028       C  0.05245385  0.00004742  0.95273947     1.02300
Cr1029     Cr  0.49828253  0.95934809  0.49815924     1.93700
Cr1030     Cr  0.46001275  0.99733744  0.99740560     1.93200
Cr1031     Cr  0.03558963  0.53402553  0.99751951     1.39100
O1032       O  0.49776498  0.99671019  0.49777162    -1.23400
C1033       C  0.49827331  0.61998026  0.88608809    -0.06400
C1034       C  0.01311778  0.63089111  0.91591436    -0.17600
C1035       C  0.01154158  0.60924394  0.93927298     0.10800
C1036       C  0.99550532  0.57531796  0.93261681    -0.06400
C1037       C  0.48075752  0.56433365  0.90266827    -0.17600
C1038       C  0.48196876  0.58612909  0.87931173     0.10800
S1039       S  0.02853161  0.62661842  0.97775389    -0.32600
S1040       S  0.46346714  0.56933820  0.84108980    -0.32600
H1041       H  0.48445455  0.59723242  0.82332870     0.28800
H1042       H  0.00194615  0.60196135  0.99482951     0.28800
H1043       H  0.02501007  0.65670158  0.92168148     0.19400
H1044       H  0.46860617  0.53849653  0.89705796     0.19400
C1045       C  0.50430943  0.62136905  0.61061555    -0.06400
C1046       C  0.48271458  0.58785134  0.61584058    -0.17600
C1047       C  0.48191484  0.56399381  0.59514263     0.10800
C1048       C  0.00374014  0.57366371  0.56908791    -0.06400
C1049       C  0.02590189  0.60687518  0.56436607    -0.17600
C1050       C  0.02586828  0.63075596  0.58419184     0.10800
S1051       S  0.45381026  0.52171765  0.60414104    -0.32600
S1052       S  0.05159597  0.67262923  0.57218306    -0.32600
H1053       H  0.02917729  0.68276708  0.58158345     0.28800
H1054       H  0.47344771  0.50968547  0.59113708     0.28800
H1055       H  0.46652806  0.58014998  0.63636407     0.19400
H1056       H  0.04227518  0.61438384  0.54400324     0.19400
C1057       C  0.07682984  0.49485062  0.56407803    -0.06400
C1058       C  0.10944720  0.00554869  0.55327366    -0.17600
C1059       C  0.13293437  0.00578192  0.57419174     0.10800
C1060       C  0.12400867  0.99552660  0.60599447    -0.06400
C1061       C  0.09136659  0.48394189  0.61651104    -0.17600
C1062       C  0.06798137  0.48434007  0.59587056     0.10800
S1063       S  0.17386499  0.01953906  0.55889163    -0.32600
S1064       S  0.02830181  0.47382056  0.61235986    -0.32600
H1065       H  0.02439765  0.49696318  0.59482074     0.28800
H1066       H  0.18161942  0.00094845  0.57947277     0.28800
H1067       H  0.11650269  0.01315471  0.52883029     0.19400
H1068       H  0.08455526  0.47645137  0.64101598     0.19400
C1069       C  0.07630746  0.00186573  0.92876675    -0.06400
C1070       C  0.10956230  0.52328111  0.93434872    -0.17600
C1071       C  0.13403616  0.52398401  0.91460235     0.10800
C1072       C  0.12490921  0.00379247  0.88727351    -0.06400
C1073       C  0.09112002  0.98282096  0.88103053    -0.17600
C1074       C  0.06679368  0.98160583  0.90148259     0.10800
S1075       S  0.17625727  0.54886452  0.92752078    -0.32600
S1076       S  0.02416578  0.95379276  0.89158384    -0.32600
H1077       H  0.01164657  0.97274910  0.90500715     0.28800
H1078       H  0.18674691  0.52714414  0.91715914     0.28800
H1079       H  0.11678816  0.53830336  0.95572856     0.19400
H1080       H  0.08364272  0.96717309  0.86009940     0.19400
C1081       C  0.42171656  0.91698587  0.92968133    -0.06400
C1082       C  0.40816671  0.92782424  0.90614833    -0.17600
C1083       C  0.38586312  0.90623020  0.88335720     0.10800
C1084       C  0.37501763  0.87240243  0.88517480    -0.06400
C1085       C  0.38952483  0.86188757  0.90813286    -0.17600
C1086       C  0.41275086  0.88366103  0.93009037     0.10800
S1087       S  0.37386881  0.92381561  0.85163803    -0.32600
S1088       S  0.42874615  0.86692696  0.95892465    -0.32600
H1089       H  0.42807958  0.88565708  0.98468508     0.28800
H1090       H  0.36939880  0.90017222  0.82861055     0.28800
H1091       H  0.41569558  0.95351377  0.90501491     0.19400
H1092       H  0.38175627  0.83618263  0.90985135     0.19400
C1093       C  0.41895783  0.92258906  0.56664017    -0.06400
C1094       C  0.43225937  0.92148095  0.59619297    -0.17600
C1095       C  0.41204170  0.90196180  0.62095092     0.10800
C1096       C  0.37764755  0.88194137  0.61580582    -0.06400
C1097       C  0.36427695  0.88372119  0.58639063    -0.17600
C1098       C  0.38449767  0.90374956  0.56185739     0.10800
S1099       S  0.43149693  0.90484584  0.65889555    -0.32600
S1100       S  0.36491754  0.90394890  0.52492571    -0.32600
H1101       H  0.39059337  0.90714930  0.50514418     0.28800
H1102       H  0.40410181  0.89916689  0.67752029     0.28800
H1103       H  0.45853552  0.93649696  0.60023113     0.19400
H1104       H  0.33798352  0.86867602  0.58214877     0.19400
C1105       C  0.16075951  0.89042294  0.71994300    -0.06400
C1106       C  0.19052208  0.92008686  0.71978158    -0.17600
C1107       C  0.19497492  0.94611198  0.70059200     0.10800
C1108       C  0.16728477  0.94532309  0.68553017    -0.06400
C1109       C  0.13687710  0.91597462  0.68718469    -0.17600
C1110       C  0.13367824  0.88833528  0.70270404     0.10800
S1111       S  0.23727307  0.97705126  0.69338886    -0.32600
S1112       S  0.09390821  0.85201390  0.69954452    -0.32600
H1113       H  0.10018970  0.83421009  0.72187968     0.28800
H1114       H  0.23150304  0.48208533  0.66196254     0.28800
H1115       H  0.21125905  0.92229555  0.73326716     0.19400
H1116       H  0.11501952  0.91423292  0.67643541     0.19400
C1117       C  0.16655667  0.93913857  0.82917164    -0.06400
C1118       C  0.13673869  0.91823045  0.81348828    -0.17600
C1119       C  0.13287608  0.89135824  0.79588172     0.10800
C1120       C  0.15989963  0.88613790  0.79227789    -0.06400
C1121       C  0.18856575  0.90517172  0.81027218    -0.17600
C1122       C  0.19210987  0.93136376  0.82888174     0.10800
S1123       S  0.09251709  0.86385513  0.78025523    -0.32600
S1124       S  0.22974033  0.95383504  0.85157249    -0.32600
H1125       H  0.21637034  0.96537929  0.87491158     0.28800
H1126       H  0.09555334  0.83594908  0.78382126     0.28800
H1127       H  0.11655510  0.92333254  0.81423673     0.19400
H1128       H  0.20847476  0.89977654  0.80972434     0.19400
C1129       C  0.26464395  0.82856459  0.83090532    -0.06400
C1130       C  0.27431671  0.85802794  0.81489200    -0.17600
C1131       C  0.25241131  0.86216012  0.79531928     0.10800
C1132       C  0.22017480  0.83562219  0.79020657    -0.06400
C1133       C  0.21022319  0.80658419  0.80691250    -0.17600
C1134       C  0.23145663  0.80318570  0.82802033     0.10800
S1135       S  0.26782648  0.90206970  0.77826317    -0.32600
S1136       S  0.21430502  0.76620843  0.85108178    -0.32600
H1137       H  0.23753317  0.77949834  0.87599254     0.28800
H1138       H  0.23782293  0.89803181  0.76707489     0.28800
H1139       H  0.29960947  0.87780019  0.81673047     0.19400
H1140       H  0.18563976  0.78616715  0.80338589     0.19400
C1141       C  0.27533042  0.83490572  0.68538451    -0.06400
C1142       C  0.27560667  0.86464210  0.68868233    -0.17600
C1143       C  0.24910373  0.86617378  0.70245184     0.10800
C1144       C  0.22319669  0.83836165  0.71715691    -0.06400
C1145       C  0.22206305  0.80841354  0.71281957    -0.17600
C1146       C  0.24653540  0.80604744  0.69555756     0.10800
S1147       S  0.24927832  0.90391790  0.69871174    -0.32600
S1148       S  0.23759697  0.76532324  0.68506905    -0.32600
H1149       H  0.25541789  0.77442194  0.65632919     0.28800
H1150       H  0.21727312  0.88859096  0.68575374     0.28800
H1151       H  0.29647175  0.88705927  0.68030230     0.19400
H1152       H  0.20124291  0.78640753  0.72179329     0.19400
C1153       C  0.10728945  0.77579675  0.78706598    -0.06400
C1154       C  0.11465665  0.76706466  0.81689155    -0.17600
C1155       C  0.08996304  0.74312746  0.83630592     0.10800
C1156       C  0.05721128  0.72552579  0.82485505    -0.06400
C1157       C  0.05040070  0.73350592  0.79470646    -0.17600
C1158       C  0.07378131  0.76001887  0.77745579     0.10800
S1159       S  0.10175183  0.73754232  0.87562709    -0.32600
S1160       S  0.05842626  0.77556451  0.74671345    -0.32600
H1161       H  0.02516790  0.75061794  0.74676940     0.28800
H1162       H  0.07154341  0.72962244  0.89014733     0.28800
H1163       H  0.13958871  0.77958822  0.82593779     0.19400
H1164       H  0.02584222  0.71969759  0.78508525     0.19400
C1165       C  0.06509841  0.72292500  0.67795103    -0.06400
C1166       C  0.08181294  0.71646262  0.70196919    -0.17600
C1167       C  0.10777740  0.74184949  0.71904735     0.10800
C1168       C  0.11665571  0.77470581  0.71258562    -0.06400
C1169       C  0.10285893  0.78088312  0.68557613    -0.17600
C1170       C  0.07681866  0.75550106  0.66866352     0.10800
S1171       S  0.12818857  0.73001222  0.74819180    -0.32600
S1172       S  0.05835731  0.76638845  0.63673839    -0.32600
H1173       H  0.04620984  0.73701337  0.61948644     0.28800
H1174       H  0.15603617  0.76080627  0.75257649     0.28800
H1175       H  0.07372462  0.69139202  0.70830099     0.19400
H1176       H  0.11072487  0.80568834  0.67880438     0.19400
C1177       C  0.38984074  0.66616182  0.78246600    -0.06400
C1178       C  0.38154910  0.64642900  0.80978147    -0.17600
C1179       C  0.40595513  0.64805474  0.83058550     0.10800
C1180       C  0.43974617  0.66779118  0.82255664    -0.06400
C1181       C  0.44733928  0.68704531  0.79489465    -0.17600
C1182       C  0.42341175  0.68856669  0.77669409     0.10800
S1183       S  0.39200215  0.62627477  0.86758277    -0.32600
S1184       S  0.43847693  0.72225662  0.74913618    -0.32600
H1185       H  0.40937881  0.72381346  0.74681238     0.28800
H1186       H  0.41924649  0.64923823  0.88552338     0.28800
H1187       H  0.35579575  0.63014016  0.81538566     0.19400
H1188       H  0.47248662  0.70235055  0.78744189     0.19400
C1189       C  0.38806089  0.66031912  0.70842230    -0.06400
C1190       C  0.40417275  0.68354983  0.68434929    -0.17600
C1191       C  0.43135193  0.68560141  0.66799893     0.10800
C1192       C  0.44231165  0.66338941  0.67509435    -0.06400
C1193       C  0.42463016  0.63852438  0.69708495    -0.17600
C1194       C  0.39765025  0.63659174  0.71374719     0.10800
S1195       S  0.45176621  0.71783952  0.63930596    -0.32600
S1196       S  0.37570565  0.60329349  0.74109504    -0.32600
H1197       H  0.39671771  0.59002391  0.73898505     0.28800
H1198       H  0.96484290  0.70201926  0.62042909     0.28800
H1199       H  0.39690889  0.70161778  0.67965036     0.19400
H1200       H  0.43285090  0.62123465  0.70197950     0.19400
C1201       C  0.34364611  0.72795598  0.71076840    -0.06400
C1202       C  0.36912574  0.75928131  0.71970992    -0.17600
C1203       C  0.37059018  0.78764722  0.70771101     0.10800
C1204       C  0.34680439  0.78473592  0.68521112    -0.06400
C1205       C  0.32300615  0.75366746  0.67450115    -0.17600
C1206       C  0.32091366  0.72532734  0.68705372     0.10800
S1207       S  0.40218187  0.82636035  0.72345663    -0.32600
S1208       S  0.28694822  0.68644610  0.67465792    -0.32600
H1209       H  0.27196138  0.69812115  0.65346782     0.28800
H1210       H  0.38600904  0.84417064  0.71789986     0.28800
H1211       H  0.38677016  0.76165046  0.73776490     0.19400
H1212       H  0.30482991  0.75173408  0.65729954     0.19400
C1213       C  0.33310751  0.72157856  0.78283047    -0.06400
C1214       C  0.31161458  0.73210820  0.77204426    -0.17600
C1215       C  0.31001752  0.75772958  0.78680056     0.10800
C1216       C  0.32616483  0.77031676  0.81647491    -0.06400
C1217       C  0.34544201  0.75770099  0.82894479    -0.17600
C1218       C  0.35004856  0.73453943  0.81201930     0.10800
S1219       S  0.28960609  0.77487505  0.76421817    -0.32600
S1220       S  0.37918263  0.72420950  0.82834449    -0.32600
H1221       H  0.39469345  0.72747531  0.79896309     0.28800
H1222       H  0.31295209  0.80745214  0.77178919     0.28800
H1223       H  0.29720670  0.72158152  0.75059496     0.19400
H1224       H  0.35783495  0.76655969  0.85165811     0.19400
C1225       C  0.27694031  0.60989903  0.77897241    -0.06400
C1226       C  0.26615873  0.61659298  0.80790484    -0.17600
C1227       C  0.24233667  0.59141768  0.82686634     0.10800
C1228       C  0.22564655  0.55886119  0.81503675    -0.06400
C1229       C  0.23560468  0.55284979  0.78529200    -0.17600
C1230       C  0.26293640  0.57685193  0.76931494     0.10800
S1231       S  0.23704599  0.60245626  0.86666691    -0.32600
S1232       S  0.28084030  0.56194233  0.74034132    -0.32600
H1233       H  0.31199104  0.58986344  0.74077547     0.28800
H1234       H  0.23457944  0.57431696  0.88055981     0.28800
H1235       H  0.27721583  0.64152916  0.81647700     0.19400
H1236       H  0.22343805  0.52855066  0.77501225     0.19400
C1237       C  0.27476498  0.61822338  0.70623611    -0.06400
C1238       C  0.28062235  0.60257073  0.68063818    -0.17600
C1239       C  0.25441067  0.57621342  0.66497402     0.10800
C1240       C  0.22170023  0.56572158  0.67471133    -0.06400
C1241       C  0.21571820  0.58403489  0.69734688    -0.17600
C1242       C  0.24201307  0.61073755  0.71277801     0.10800
S1243       S  0.26437892  0.55514541  0.63482170    -0.32600
S1244       S  0.23362330  0.63521755  0.74039386    -0.32600
H1245       H  0.19908780  0.61812285  0.73681879     0.28800
H1246       H  0.23468199  0.54287222  0.61767100     0.28800
H1247       H  0.30570861  0.60895554  0.67470173     0.19400
H1248       H  0.19049763  0.57641658  0.70394425     0.19400
C1249       C  0.83576892  0.16807412  0.21398114     0.45100
H1250       H  0.83658257  0.16900912  0.18754523    -0.03900
C1251       C  0.83396168  0.16586535  0.27595862     0.45200
H1252       H  0.83309032  0.16479992  0.30233111    -0.03900
C1253       C  0.83906511  0.19912200  0.22965606    -0.17600
C1254       C  0.80327441  0.14019838  0.22734675    -0.17300
C1255       C  0.86334714  0.16335779  0.22875869    -0.17700
C1256       C  0.83705748  0.19751406  0.26256790    -0.17700
C1257       C  0.80315398  0.13773344  0.26009080    -0.17200
C1258       C  0.86326357  0.16402199  0.26168775    -0.17600
C1259       C  0.66508000  0.33565842  0.22265760     0.45100
H1260       H  0.66633658  0.33705367  0.19625315    -0.03900
C1261       C  0.66281569  0.33270808  0.28451844     0.45200
H1262       H  0.66239549  0.33222741  0.31096939    -0.03900
C1263       C  0.63737824  0.30257702  0.23557432    -0.17600
C1264       C  0.69682459  0.33923925  0.23759878    -0.17300
C1265       C  0.65977043  0.36241884  0.23872407    -0.17700
C1266       C  0.63473979  0.30194521  0.26855230    -0.17700
C1267       C  0.69530279  0.33720771  0.27036355    -0.17200
C1268       C  0.65931020  0.36085693  0.27143069    -0.17600
C1269       C  0.85552545  0.35816388  0.14033432     0.02800
C1270       C  0.82634820  0.35758428  0.15030697    -0.13300
C1271       C  0.80569050  0.33527030  0.17364122     0.00300
C1272       C  0.81519374  0.31394851  0.18663730    -0.11900
C1273       C  0.84263649  0.31255167  0.17543183     0.02800
C1274       C  0.86296715  0.33483760  0.15243447    -0.11300
H1275       H  0.81997229  0.37459170  0.13983234     0.08400
H1276       H  0.80064889  0.29742118  0.20511671     0.05900
H1277       H  0.88408834  0.33359872  0.14350269     0.05800
C1278       C  0.84745618  0.34700129  0.36571359     0.02800
C1279       C  0.85018638  0.32150645  0.35102082    -0.13300
C1280       C  0.82310758  0.29595817  0.33483821     0.00300
C1281       C  0.79309392  0.29589861  0.33461986    -0.11900
C1282       C  0.79114803  0.32304549  0.34502098     0.02800
C1283       C  0.81782449  0.34770357  0.36214812    -0.11300
H1284       H  0.87361619  0.32203911  0.35174039     0.08400
H1285       H  0.77177379  0.27576972  0.32358422     0.05900
H1286       H  0.81555110  0.36765760  0.37215678     0.05800
C1287       C  0.65036099  0.50297784  0.36645363     0.02800
C1288       C  0.67497535  0.03114514  0.35092205    -0.13300
C1289       C  0.69989243  0.02989631  0.33293279     0.00300
C1290       C  0.69842495  0.99953444  0.32952643    -0.11900
C1291       C  0.67230399  0.47095896  0.34207435     0.02800
C1292       C  0.64858857  0.47285511  0.36084816    -0.11300
H1293       H  0.67442058  0.05368202  0.35301584     0.08400
H1294       H  0.71707501  0.99761825  0.31592898     0.05900
H1295       H  0.62849374  0.45073963  0.37080510     0.05800
C1296       C  0.64797559  0.49849709  0.13113056     0.02800
C1297       C  0.67274924  0.03024575  0.14081373    -0.13300
C1298       C  0.69447592  0.03376526  0.16534105     0.00300
C1299       C  0.69040709  0.50563584  0.18131432    -0.11900
C1300       C  0.66823267  0.47394493  0.17021109     0.02800
C1301       C  0.64663368  0.47074567  0.14496668    -0.10800
H1302       H  0.67467724  0.05171838  0.12958323     0.08400
H1303       H  0.70534882  0.50932934  0.20226868     0.05900
H1304       H  0.62882086  0.44693795  0.13574785     0.05800
C1305       C  0.00439534  0.14567232  0.13381913     0.02800
C1306       C  0.53433713  0.17134207  0.14658087    -0.13300
C1307       C  0.53425674  0.19563021  0.16590319     0.00300
C1308       C  0.50417105  0.19351141  0.17415441    -0.11900
C1309       C  0.97409689  0.16731611  0.16307447     0.02800
C1310       C  0.97434990  0.14349512  0.14304964    -0.11300
H1311       H  0.55760906  0.17266994  0.14094685     0.08400
H1312       H  0.50401943  0.21173931  0.18986969     0.05900
H1313       H  0.95114475  0.12348406  0.13445800     0.05800
C1314       C  0.99855181  0.14527128  0.36467169     0.02800
C1315       C  0.96863316  0.14293803  0.35451864    -0.13300
C1316       C  0.96855530  0.17032834  0.34146326     0.00300
C1317       C  0.49788695  0.19938254  0.34136532    -0.11900
C1318       C  0.52804220  0.19989519  0.34375774     0.02800
C1319       C  0.52802723  0.17271956  0.35701200    -0.11300
H1320       H  0.94595639  0.11996972  0.35678187     0.08400
H1321       H  0.49819115  0.22147201  0.33400791     0.05900
H1322       H  0.55102517  0.17287609  0.36075691     0.05800
O1323       O  0.52420617  0.47132934  0.03845641    -0.85700
O1324       O  0.95775078  0.43476976  0.02561823    -0.82700
C1325       C  0.94109798  0.44412263  0.04178787     0.97800
O1326       O  0.94306110  0.47126092  0.03673032    -0.82700
O1327       O  0.97665827  0.03698234  0.02582155    -0.85400
C1328       C  0.50185454  0.05080585  0.04414126     1.02300
O1329       O  0.52642777  0.04697710  0.03983086    -0.78200
O1330       O  0.56259569  0.01802991  0.02067185    -0.78300
C1331       C  0.55305305  0.99493931  0.04026374     1.02300
O1332       O  0.53879294  0.47556489  0.47086969    -0.85700
O1333       O  0.97236164  0.44280903  0.45861038    -0.82700
C1334       C  0.94458000  0.44036668  0.45393988     0.97800
O1335       O  0.93538195  0.45715781  0.47006420    -0.82800
O1336       O  0.97172937  0.02336367  0.45717873    -0.85400
C1337       C  0.49552329  0.05175148  0.45625727     1.02300
O1338       O  0.51945076  0.06062811  0.47526798    -0.78200
O1339       O  0.54821082  0.02455835  0.45594978    -0.78300
C1340       C  0.55258679  0.50011114  0.45260363     1.02300
Cr1341     Cr  0.99797564  0.45913396  0.99826551     1.93700
Cr1342     Cr  0.96006387  0.49705571  0.49769349     1.93200
Cr1343     Cr  0.53590377  0.03426990  0.49782938     1.39100
O1344       O  0.99743343  0.49648136  0.99760527    -1.23400
C1345       C  0.99861827  0.12042170  0.38617317    -0.06400
C1346       C  0.51294272  0.13099759  0.41649552    -0.17600
C1347       C  0.51151272  0.10935630  0.43976851     0.10800
C1348       C  0.49567622  0.07547243  0.43300122    -0.06400
C1349       C  0.98081019  0.06469749  0.40273199    -0.17600
C1350       C  0.98205606  0.08654838  0.37942137     0.10800
S1351       S  0.52838023  0.12665934  0.47830115    -0.32600
S1352       S  0.96319847  0.06975317  0.34131535    -0.32600
H1353       H  0.98407293  0.09760961  0.32345702     0.28800
H1354       H  0.50182428  0.10187593  0.49529699     0.28800
H1355       H  0.52468689  0.15678089  0.42234660     0.19400
H1356       H  0.96846983  0.03884924  0.39713813     0.19400
C1357       C  0.00458751  0.12126036  0.11118923    -0.06400
C1358       C  0.98299491  0.08774022  0.11640567    -0.17600
C1359       C  0.98208322  0.06389705  0.09560501     0.10800
C1360       C  0.50364688  0.07388317  0.06898407    -0.06400
C1361       C  0.52601900  0.10709088  0.06449415    -0.17600
C1362       C  0.52618064  0.13094035  0.08453297     0.10800
S1363       S  0.95382595  0.02162364  0.10448055    -0.32600
S1364       S  0.55225717  0.17285758  0.07283485    -0.32600
H1365       H  0.52996863  0.18316382  0.08222346     0.28800
H1366       H  0.97318723  0.00943444  0.09114819     0.28800
H1367       H  0.96684713  0.08003153  0.13695820     0.19400
H1368       H  0.54242369  0.11464175  0.04415008     0.19400
C1369       C  0.57682641  0.99534498  0.06391408    -0.06400
C1370       C  0.60939029  0.50574689  0.05407288    -0.17600
C1371       C  0.63267684  0.50572848  0.07508895     0.10800
C1372       C  0.62351994  0.49527709  0.10681202    -0.06400
C1373       C  0.59139313  0.98486028  0.11651738    -0.17600
C1374       C  0.56802299  0.98518764  0.09579695     0.10800
S1375       S  0.67366560  0.51939149  0.06000673    -0.32600
S1376       S  0.52842533  0.97502904  0.11225798    -0.32600
H1377       H  0.52455532  0.99798963  0.09435927     0.28800
H1378       H  0.68107082  0.50043040  0.08043230     0.28800
H1379       H  0.61661677  0.51345811  0.02968178     0.19400
H1380       H  0.58461484  0.97760935  0.14107863     0.19400
C1381       C  0.57654303  0.50206109  0.42871058    -0.06400
C1382       C  0.61000588  0.02367939  0.43432634    -0.17600
C1383       C  0.63443443  0.02423439  0.41460272     0.10800
C1384       C  0.62546110  0.50418965  0.38756236    -0.06400
C1385       C  0.59172388  0.48296548  0.38126851    -0.17600
C1386       C  0.56724320  0.48161132  0.40157850     0.10800
S1387       S  0.67666946  0.04899708  0.42752004    -0.32600
S1388       S  0.52471470  0.45332964  0.39174255    -0.32600
H1389       H  0.51185968  0.47210223  0.40490391     0.28800
H1390       H  0.68701630  0.02713756  0.41725046     0.28800
H1391       H  0.61728618  0.03875460  0.45567053     0.19400
H1392       H  0.58440940  0.46716168  0.36045618     0.19400
C1393       C  0.92179421  0.41673765  0.42999977    -0.06400
C1394       C  0.90792420  0.42754821  0.40677425    -0.17600
C1395       C  0.88568544  0.40602650  0.38392233     0.10800
C1396       C  0.87517817  0.37225683  0.38542162    -0.06400
C1397       C  0.89003103  0.36178552  0.40804748    -0.17600
C1398       C  0.91325660  0.38352172  0.43001665     0.10800
S1399       S  0.87337450  0.42366917  0.35251726    -0.32600
S1400       S  0.92982819  0.36684919  0.45831272    -0.32600
H1401       H  0.92934714  0.38534264  0.48438220     0.28800
H1402       H  0.86903659  0.40026717  0.32925972     0.28800
H1403       H  0.91517585  0.45318122  0.40590744     0.19400
H1404       H  0.88254359  0.33613104  0.40950516     0.19400
C1405       C  0.91868048  0.42264776  0.06681202    -0.06400
C1406       C  0.93207910  0.42162340  0.09634119    -0.17600
C1407       C  0.91195891  0.40216225  0.12118827     0.10800
C1408       C  0.87754307  0.38211740  0.11617563    -0.06400
C1409       C  0.86407360  0.38381170  0.08678581    -0.17600
C1410       C  0.88419999  0.40376960  0.06215746     0.10800
S1411       S  0.93157927  0.40513289  0.15905649    -0.32600
S1412       S  0.86445648  0.40378313  0.02526772    -0.32600
H1413       H  0.89019270  0.40730210  0.00538886     0.28800
H1414       H  0.90423365  0.39937976  0.17779795     0.28800
H1415       H  0.95836399  0.43665065  0.10028537     0.19400
H1416       H  0.83776811  0.36873861  0.08263218     0.19400
C1417       C  0.66049902  0.39007425  0.22079688    -0.06400
C1418       C  0.69020652  0.41976756  0.22050877    -0.17600
C1419       C  0.69455829  0.44561418  0.20111954     0.10800
C1420       C  0.66679011  0.44468468  0.18607533    -0.06400
C1421       C  0.63645018  0.41529342  0.18778439    -0.17600
C1422       C  0.63337282  0.38778108  0.20345745     0.10800
S1423       S  0.73682307  0.47646219  0.19359704    -0.32600
S1424       S  0.59367965  0.35137024  0.20040049    -0.32600
H1425       H  0.60010472  0.33385294  0.22293243     0.28800
H1426       H  0.73133729  0.98234484  0.16174117     0.28800
H1427       H  0.71098942  0.42211190  0.23401622     0.19400
H1428       H  0.61455809  0.41342907  0.17698862     0.19400
C1429       C  0.66699006  0.43911714  0.33019484    -0.06400
C1430       C  0.63718456  0.41843784  0.31436463    -0.17600
C1431       C  0.63315361  0.39150963  0.29674413     0.10800
C1432       C  0.66002796  0.38605369  0.29321411    -0.06400
C1433       C  0.68865011  0.40484237  0.31135693    -0.17600
C1434       C  0.69231955  0.43103399  0.33004468     0.10800
S1435       S  0.59276209  0.36420529  0.28105199    -0.32600
S1436       S  0.72977270  0.45305518  0.35307994    -0.32600
H1437       H  0.71636746  0.46462396  0.37636044     0.28800
H1438       H  0.59555822  0.33615293  0.28456903     0.28800
H1439       H  0.61713909  0.42374515  0.31503193     0.19400
H1440       H  0.70841237  0.39922905  0.31089473     0.19400
C1441       C  0.76469857  0.32840042  0.33162885    -0.06400
C1442       C  0.77440484  0.35785303  0.31558204    -0.17600
C1443       C  0.75248284  0.36202759  0.29609110     0.10800
C1444       C  0.72019646  0.33554113  0.29111295    -0.06400
C1445       C  0.71019188  0.30654128  0.30791062    -0.17600
C1446       C  0.73147500  0.30309362  0.32890267     0.10800
S1447       S  0.76792332  0.40192070  0.27898001    -0.32600
S1448       S  0.71437581  0.26614160  0.35199462    -0.32600
H1449       H  0.73773609  0.27941309  0.37679727     0.28800
H1450       H  0.73788364  0.39799330  0.26802736     0.28800
H1451       H  0.79973175  0.37757290  0.31732300     0.19400
H1452       H  0.68553340  0.28619188  0.30453396     0.19400
C1453       C  0.77528782  0.33501724  0.18594177    -0.06400
C1454       C  0.77548904  0.36471421  0.18925994    -0.17600
C1455       C  0.74901633  0.36618854  0.20318929     0.10800
C1456       C  0.72324010  0.33837216  0.21802952    -0.06400
C1457       C  0.72215737  0.30845573  0.21363856    -0.17600
C1458       C  0.74656324  0.30613727  0.19619961     0.10800
S1459       S  0.74905952  0.40386632  0.19949108    -0.32600
S1460       S  0.73759654  0.26544395  0.18554514    -0.32600
H1461       H  0.75533354  0.27462643  0.15675901     0.28800
H1462       H  0.71710157  0.38846315  0.18641439     0.28800
H1463       H  0.79627137  0.38714272  0.18078723     0.19400
H1464       H  0.70140102  0.28643329  0.22268214     0.19400
C1465       C  0.60721109  0.27579118  0.28809321    -0.06400
C1466       C  0.61441599  0.26717899  0.31806569    -0.17600
C1467       C  0.58959081  0.24341345  0.33751927     0.10800
C1468       C  0.55685622  0.22588844  0.32600639    -0.06400
C1469       C  0.55016912  0.23382923  0.29579848    -0.17600
C1470       C  0.57374379  0.26001023  0.27835115     0.10800
S1471       S  0.60115638  0.23800502  0.37701092    -0.32600
S1472       S  0.55844277  0.27533706  0.24741796    -0.32600
H1473       H  0.52794738  0.24676421  0.24228281     0.28800
H1474       H  0.57084437  0.23007537  0.39130803     0.28800
H1475       H  0.63933321  0.27963719  0.32716853     0.19400
H1476       H  0.52553560  0.22034586  0.28627725     0.19400
C1477       C  0.56541853  0.22283260  0.17867688    -0.06400
C1478       C  0.58191757  0.21631711  0.20287996    -0.17600
C1479       C  0.60779437  0.24167390  0.22007529     0.10800
C1480       C  0.61676607  0.27453918  0.21355989    -0.06400
C1481       C  0.60319389  0.28076120  0.18640776    -0.17600
C1482       C  0.57727147  0.25542242  0.16935709     0.10800
S1483       S  0.62799828  0.22981982  0.24943191    -0.32600
S1484       S  0.55912001  0.26641324  0.13722719    -0.32600
H1485       H  0.54673176  0.23694077  0.12010737     0.28800
H1486       H  0.65605670  0.26053303  0.25352543     0.28800
H1487       H  0.57372748  0.19123581  0.20925291     0.19400
H1488       H  0.61113112  0.30557409  0.17960800     0.19400
C1489       C  0.89013088  0.16646609  0.28264494    -0.06400
C1490       C  0.88181636  0.14663931  0.30989149    -0.17600
C1491       C  0.90618325  0.14831089  0.33077235     0.10800
C1492       C  0.93999705  0.16830965  0.32295330    -0.06400
C1493       C  0.94761788  0.18769834  0.29538600    -0.17600
C1494       C  0.92368853  0.18903174  0.27701194     0.10800
S1495       S  0.89210800  0.12617718  0.36757508    -0.32600
S1496       S  0.93874507  0.22261956  0.24932273    -0.32600
H1497       H  0.90955005  0.22393624  0.24657734     0.28800
H1498       H  0.91918024  0.14907748  0.38574189     0.28800
H1499       H  0.85605978  0.13019651  0.31535769     0.19400
H1500       H  0.97277179  0.20318830  0.28808860     0.19400
C1501       C  0.88840169  0.16053206  0.20862494    -0.06400
C1502       C  0.90450750  0.18371730  0.18451526    -0.17600
C1503       C  0.93166388  0.18571575  0.16816622     0.10800
C1504       C  0.94261952  0.16351480  0.17533060    -0.06400
C1505       C  0.92495935  0.13871105  0.19737790    -0.17600
C1506       C  0.89796433  0.13678848  0.21398903     0.10800
S1507       S  0.95204933  0.21786682  0.13938185    -0.32600
S1508       S  0.87608074  0.10357362  0.24144168    -0.32600
H1509       H  0.89491776  0.08819269  0.23672582     0.28800
H1510       H  0.46555193  0.20249047  0.12127579     0.28800
H1511       H  0.89724003  0.20177400  0.17976738     0.19400
H1512       H  0.93325964  0.12150960  0.20241562     0.19400
C1513       C  0.84371135  0.22803856  0.21092071    -0.06400
C1514       C  0.86921462  0.25936202  0.21983269    -0.17600
C1515       C  0.87067634  0.28773699  0.20785870     0.10800
C1516       C  0.84676203  0.28484317  0.18552671    -0.06400
C1517       C  0.82290075  0.25376959  0.17486853    -0.17600
C1518       C  0.82094250  0.22542152  0.18725574     0.10800
S1519       S  0.90248233  0.32645384  0.22337899    -0.32600
S1520       S  0.78708142  0.18653485  0.17473937    -0.32600
H1521       H  0.77378706  0.19810404  0.15154915     0.28800
H1522       H  0.88626400  0.34427327  0.21812880     0.28800
H1523       H  0.88692753  0.26172539  0.23780674     0.19400
H1524       H  0.80458133  0.25182762  0.15784046     0.19400
C1525       C  0.83323079  0.22160001  0.28293013    -0.06400
C1526       C  0.81156135  0.23195872  0.27227561    -0.17600
C1527       C  0.80990886  0.25753236  0.28707501     0.10800
C1528       C  0.82623143  0.27023876  0.31665810    -0.06400
C1529       C  0.84572961  0.25780443  0.32897553    -0.17600
C1530       C  0.85037195  0.23471015  0.31198606     0.10800
S1531       S  0.78923494  0.27449291  0.26462470    -0.32600
S1532       S  0.87987147  0.22471310  0.32797645    -0.32600
H1533       H  0.89539392  0.22851254  0.29851365     0.28800
H1534       H  0.81251898  0.30711634  0.27209842     0.28800
H1535       H  0.79707534  0.22135193  0.25088091     0.19400
H1536       H  0.85828124  0.26676653  0.35160344     0.19400
C1537       C  0.77727804  0.10986233  0.27904908    -0.06400
C1538       C  0.76650929  0.11647336  0.30802943    -0.17600
C1539       C  0.74273972  0.09124615  0.32697524     0.10800
C1540       C  0.72603401  0.05871990  0.31508055    -0.06400
C1541       C  0.73604322  0.05275714  0.28533527    -0.17600
C1542       C  0.76334269  0.07682682  0.26935431     0.10800
S1543       S  0.73759196  0.10216183  0.36687447    -0.32600
S1544       S  0.78129660  0.06202957  0.24031373    -0.32600
H1545       H  0.81238282  0.09003099  0.24066331     0.28800
H1546       H  0.73509133  0.07393933  0.38060426     0.28800
H1547       H  0.77754126  0.14138716  0.31665810     0.19400
H1548       H  0.72392119  0.02846874  0.27503401     0.19400
C1549       C  0.77502896  0.11832877  0.20635095    -0.06400
C1550       C  0.78081179  0.10267765  0.18070316    -0.17600
C1551       C  0.75453818  0.07645658  0.16495282     0.10800
C1552       C  0.72184810  0.06608868  0.17467220    -0.06400
C1553       C  0.71596486  0.08440142  0.19738889    -0.17600
C1554       C  0.74231999  0.11097994  0.21289088     0.10800
S1555       S  0.76437472  0.05540244  0.13467589    -0.32600
S1556       S  0.73405376  0.13547827  0.24059618    -0.32600
H1557       H  0.69962349  0.11916462  0.23621934     0.28800
H1558       H  0.73472454  0.04340447  0.11749419     0.28800
H1559       H  0.80587326  0.10897768  0.17476084     0.19400
H1560       H  0.69076804  0.07686494  0.20400787     0.19400
C1561       C  0.83621014  0.16789649  0.71376990     0.45100
H1562       H  0.83718617  0.16888639  0.68734546    -0.03900
C1563       C  0.83409984  0.16543032  0.77573522     0.45200
H1564       H  0.83311266  0.16426181  0.80210532    -0.03900
C1565       C  0.83952885  0.19894185  0.72951616    -0.17600
C1566       C  0.80362235  0.14002443  0.72696156    -0.17300
C1567       C  0.86364454  0.16302442  0.72860059    -0.17700
C1568       C  0.83733305  0.19717106  0.76242888    -0.17700
C1569       C  0.80329191  0.13745206  0.75970556    -0.17200
C1570       C  0.86341792  0.16352912  0.76153097    -0.17600
C1571       C  0.66522296  0.33562182  0.72212337     0.45100
H1572       H  0.66643182  0.33693180  0.69571508    -0.03900
C1573       C  0.66305195  0.33286723  0.78400064     0.45200
H1574       H  0.66268369  0.33248304  0.81045351    -0.03900
C1575       C  0.63740599  0.30264196  0.73513912    -0.17600
C1576       C  0.69691634  0.33905220  0.73705110    -0.17300
C1577       C  0.66013233  0.36255206  0.73813392    -0.17700
C1578       C  0.63487043  0.30211948  0.76813119    -0.17700
C1579       C  0.69544148  0.33715843  0.76981956    -0.17200
C1580       C  0.65965931  0.36104576  0.77083560    -0.17600
C1581       C  0.85574007  0.35787096  0.64024212     0.02800
C1582       C  0.82639340  0.35704101  0.64996890    -0.13300
C1583       C  0.80582793  0.33480910  0.67340165     0.00300
C1584       C  0.81548929  0.31365163  0.68652740    -0.11900
C1585       C  0.84316238  0.31253580  0.67555905     0.02800
C1586       C  0.86356597  0.33495442  0.65268399    -0.11300
H1587       H  0.81984114  0.37381316  0.63923394     0.08400
H1588       H  0.80093607  0.29706992  0.70494881     0.05900
H1589       H  0.88496647  0.33406844  0.64402013     0.05800
C1590       C  0.84750149  0.34677216  0.86525709     0.02800
C1591       C  0.85022016  0.32120153  0.85072734    -0.13300
C1592       C  0.82319386  0.29570429  0.83441910     0.00300
C1593       C  0.79323565  0.29576834  0.83400611    -0.11900
C1594       C  0.79131858  0.32295970  0.84433006     0.02800
C1595       C  0.81797208  0.34760558  0.86147499    -0.11300
H1596       H  0.87359952  0.32164624  0.85168487     0.08400
H1597       H  0.77191654  0.27565695  0.82295936     0.05900
H1598       H  0.81577105  0.36764895  0.87136363     0.05800
C1599       C  0.64966522  0.50296037  0.86522234     0.02800
C1600       C  0.67464384  0.03102670  0.85055432    -0.13300
C1601       C  0.69944205  0.02981393  0.83231955     0.00300
C1602       C  0.69801275  0.99946877  0.82885021    -0.11900
C1603       C  0.67179429  0.47110542  0.84084761     0.02800
C1604       C  0.64803292  0.47289726  0.85966026    -0.11300
H1605       H  0.67402175  0.05352275  0.85271452     0.08400
H1606       H  0.71658699  0.99756154  0.81511085     0.05900
H1607       H  0.62806242  0.45077555  0.86974199     0.05800
C1608       C  0.64885866  0.49863760  0.63031275     0.02800
C1609       C  0.67274832  0.03033106  0.64066668    -0.13300
C1610       C  0.69444757  0.03390287  0.66523811     0.00300
C1611       C  0.69137822  0.50606177  0.68053825    -0.11900
C1612       C  0.66921517  0.47430801  0.66951842     0.02800
C1613       C  0.64765348  0.47099107  0.64421389    -0.10800
H1614       H  0.67477364  0.05177349  0.62927328     0.08400
H1615       H  0.70635632  0.50983679  0.70148322     0.05900
H1616       H  0.62989365  0.44713625  0.63504687     0.05800
C1617       C  0.00502972  0.14588523  0.63358141     0.02800
C1618       C  0.53418338  0.17147869  0.64621830    -0.13300
C1619       C  0.53398211  0.19579164  0.66539786     0.00300
C1620       C  0.50383952  0.19367042  0.67340619    -0.11900
C1621       C  0.97452736  0.16728560  0.66288836     0.02800
C1622       C  0.97491694  0.14360196  0.64275562    -0.11300
H1623       H  0.55748927  0.17278980  0.64079644     0.08400
H1624       H  0.50358600  0.21189322  0.68905153     0.05900
H1625       H  0.95176283  0.12359130  0.63406606     0.05800
C1626       C  0.99856081  0.14472675  0.86497888     0.02800
C1627       C  0.96862337  0.14222990  0.85464160    -0.13300
C1628       C  0.96846328  0.16955802  0.84153821     0.00300
C1629       C  0.49811808  0.19941982  0.84107657    -0.11900
C1630       C  0.52836559  0.20012393  0.84357794     0.02800
C1631       C  0.52847676  0.17303447  0.85692222    -0.11300
H1632       H  0.94600103  0.11918907  0.85680313     0.08400
H1633       H  0.49828703  0.22142873  0.83366211     0.05900
H1634       H  0.55152459  0.17331383  0.86074266     0.05800
O1635       O  0.52387493  0.47087007  0.53879269    -0.85700
O1636       O  0.95775764  0.43449225  0.52542298    -0.82700
C1637       C  0.94136444  0.44392611  0.54191399     0.97800
O1638       O  0.94369287  0.47128516  0.53727694    -0.82700
O1639       O  0.97710398  0.03726743  0.52560549    -0.85400
C1640       C  0.50197389  0.05069726  0.54419778     1.02300
O1641       O  0.52652931  0.04685725  0.53980118    -0.78200
O1642       O  0.56270009  0.01799051  0.52033924    -0.78300
C1643       C  0.55320135  0.99498805  0.54002285     1.02300
O1644       O  0.53885912  0.47586044  0.97039177    -0.85700
O1645       O  0.97172299  0.44238754  0.95866525    -0.82700
C1646       C  0.94408442  0.44020135  0.95373821     0.97800
O1647       O  0.93500789  0.45727090  0.96953955    -0.82800
O1648       O  0.97166600  0.02287627  0.95744036    -0.85400
C1649       C  0.49567938  0.05183129  0.95617716     1.02300
O1650       O  0.51959643  0.06067557  0.97519700    -0.78200
O1651       O  0.54848804  0.02463806  0.95616465    -0.78300
C1652       C  0.55256433  0.50037171  0.95206829     1.02300
Cr1653     Cr  0.99828553  0.45905863  0.49843890     1.93700
Cr1654     Cr  0.95966226  0.49709256  0.99721253     1.93200
Cr1655     Cr  0.53595204  0.03433615  0.99794533     1.39100
O1656       O  0.99783193  0.49646231  0.49805656    -1.23400
C1657       C  0.99864004  0.11991862  0.88649460    -0.06400
C1658       C  0.51345027  0.13116798  0.91633659    -0.17600
C1659       C  0.51187913  0.10948628  0.93964025     0.10800
C1660       C  0.49592913  0.07558918  0.93289486    -0.06400
C1661       C  0.98121866  0.06423371  0.90284269    -0.17600
C1662       C  0.98251675  0.08610469  0.87953486     0.10800
S1663       S  0.52869459  0.12676167  0.97819235    -0.32600
S1664       S  0.96428532  0.06944475  0.84118951    -0.32600
H1665       H  0.98513501  0.09752297  0.82359948     0.28800
H1666       H  0.50205162  0.10202794  0.99514344     0.28800
H1667       H  0.52525622  0.15695510  0.92218575     0.19400
H1668       H  0.96921901  0.03842851  0.89711473     0.19400
C1669       C  0.00533772  0.12150097  0.61098376    -0.06400
C1670       C  0.98378424  0.08797676  0.61622093    -0.17600
C1671       C  0.98288319  0.06413110  0.59543285     0.10800
C1672       C  0.50385675  0.07380292  0.56903138    -0.06400
C1673       C  0.52628522  0.10698467  0.56449468    -0.17600
C1674       C  0.52640640  0.13089746  0.58439809     0.10800
S1675       S  0.95479269  0.02185393  0.60445741    -0.32600
S1676       S  0.55262550  0.17277517  0.57265629    -0.32600
H1677       H  0.53031150  0.18315171  0.58173878     0.28800
H1678       H  0.97405283  0.00968937  0.59083871     0.28800
H1679       H  0.96766054  0.08026507  0.63679170     0.19400
H1680       H  0.54273731  0.11446569  0.54418592     0.19400
C1681       C  0.57695683  0.99547100  0.56370991    -0.06400
C1682       C  0.60948335  0.50636266  0.55402358    -0.17600
C1683       C  0.63312201  0.50655256  0.57468124     0.10800
C1684       C  0.62414788  0.49519239  0.60618456    -0.06400
C1685       C  0.59153711  0.98570397  0.61659660    -0.17600
C1686       C  0.56827565  0.98609798  0.59577962     0.10800
S1687       S  0.67426920  0.52153613  0.55938985    -0.32600
S1688       S  0.52902795  0.97710285  0.61229946    -0.32600
H1689       H  0.52544739  0.99981538  0.59368496     0.28800
H1690       H  0.68230342  0.50254642  0.57911027     0.28800
H1691       H  0.61662324  0.51483983  0.52980592     0.19400
H1692       H  0.58486425  0.97904195  0.64128924     0.19400
C1693       C  0.57636546  0.50224536  0.92803509    -0.06400
C1694       C  0.61027154  0.02351172  0.93455387    -0.17600
C1695       C  0.63459870  0.02401980  0.91469713     0.10800
C1696       C  0.62493788  0.50417425  0.88655230    -0.06400
C1697       C  0.59114946  0.48330720  0.88021956    -0.17600
C1698       C  0.56682698  0.48209383  0.90067411     0.10800
S1699       S  0.67690476  0.04866114  0.92746808    -0.32600
S1700       S  0.52418673  0.45439407  0.89071690    -0.32600
H1701       H  0.51170092  0.47329340  0.90434416     0.28800
H1702       H  0.68721052  0.02688970  0.91680377     0.28800
H1703       H  0.61765606  0.03854159  0.95592964     0.19400
H1704       H  0.58367775  0.46771308  0.85924961     0.19400
C1705       C  0.92131980  0.41652603  0.92983580    -0.06400
C1706       C  0.90812466  0.42741181  0.90601118    -0.17600
C1707       C  0.88600552  0.40581466  0.88312760     0.10800
C1708       C  0.87509815  0.37198262  0.88507325    -0.06400
C1709       C  0.88925373  0.36141610  0.90833935    -0.17600
C1710       C  0.91219551  0.38317545  0.93048443     0.10800
S1711       S  0.87422248  0.42337345  0.85120999    -0.32600
S1712       S  0.92750762  0.36643539  0.95999876    -0.32600
H1713       H  0.92593164  0.38504586  0.98544246     0.28800
H1714       H  0.86970577  0.39961167  0.82830663     0.28800
H1715       H  0.91576293  0.45312164  0.90475080     0.19400
H1716       H  0.88135161  0.33568899  0.91018870     0.19400
C1717       C  0.91886276  0.42232702  0.56681229    -0.06400
C1718       C  0.93170836  0.42328358  0.59721040    -0.17600
C1719       C  0.91150322  0.40360169  0.62190619     0.10800
C1720       C  0.87760113  0.38172527  0.61602050    -0.06400
C1721       C  0.86458274  0.38147695  0.58578647    -0.17600
C1722       C  0.88479431  0.40137460  0.56117404     0.10800
S1723       S  0.93027430  0.40837155  0.66059308    -0.32600
S1724       S  0.86557391  0.39889631  0.52322201    -0.32600
H1725       H  0.89279273  0.40455944  0.50453038     0.28800
H1726       H  0.90178658  0.40086295  0.67827559     0.28800
H1727       H  0.95759452  0.43989764  0.60187581     0.19400
H1728       H  0.83862295  0.36496722  0.58104110     0.19400
C1729       C  0.66103498  0.39028223  0.72019576    -0.06400
C1730       C  0.69084607  0.41989160  0.71986863    -0.17600
C1731       C  0.69531415  0.44582029  0.70053163     0.10800
C1732       C  0.66760975  0.44504197  0.68553342    -0.06400
C1733       C  0.63715175  0.41576677  0.68736139    -0.17600
C1734       C  0.63391914  0.38818102  0.70301497     0.10800
S1735       S  0.73761228  0.47661790  0.69307631    -0.32600
S1736       S  0.59406587  0.35192644  0.70012457    -0.32600
H1737       H  0.60042698  0.33413513  0.72240543     0.28800
H1738       H  0.73132612  0.98262907  0.66202073     0.28800
H1739       H  0.71159669  0.42212114  0.73334332     0.19400
H1740       H  0.61528534  0.41405182  0.67666052     0.19400
C1741       C  0.66677719  0.43929712  0.82920685    -0.06400
C1742       C  0.63693340  0.41822591  0.81364452    -0.17600
C1743       C  0.63311405  0.39128584  0.79620172     0.10800
C1744       C  0.66022856  0.38622420  0.79253646    -0.06400
C1745       C  0.68892521  0.40540604  0.81043700    -0.17600
C1746       C  0.69238530  0.43159666  0.82899564     0.10800
S1747       S  0.59269195  0.36346119  0.78091770    -0.32600
S1748       S  0.72992865  0.45409988  0.85180569    -0.32600
H1749       H  0.71643306  0.46560002  0.87506151     0.28800
H1750       H  0.59593430  0.33570248  0.78476170     0.28800
H1751       H  0.61668059  0.42322484  0.81437938     0.19400
H1752       H  0.70889699  0.40010046  0.80988796     0.19400
C1753       C  0.76486042  0.32831533  0.83096511    -0.06400
C1754       C  0.77454279  0.35779829  0.81498175    -0.17600
C1755       C  0.75260690  0.36197966  0.79552147     0.10800
C1756       C  0.72032366  0.33548909  0.79055835    -0.06400
C1757       C  0.71032816  0.30647447  0.80731834    -0.17600
C1758       C  0.73163490  0.30300581  0.82825468     0.10800
S1759       S  0.76803970  0.40186110  0.77837047    -0.32600
S1760       S  0.71455604  0.26602386  0.85129829    -0.32600
H1761       H  0.73792157  0.27927108  0.87609841     0.28800
H1762       H  0.73804057  0.39785705  0.76720745     0.28800
H1763       H  0.79986680  0.37752510  0.81672224     0.19400
H1764       H  0.68566112  0.28612943  0.80394802     0.19400
C1765       C  0.77539668  0.33454166  0.68566624    -0.06400
C1766       C  0.77553523  0.36422951  0.68873135    -0.17600
C1767       C  0.74904787  0.36576303  0.70254334     0.10800
C1768       C  0.72329549  0.33804246  0.71752469    -0.06400
C1769       C  0.72230402  0.30812755  0.71345683    -0.17600
C1770       C  0.74673119  0.30571953  0.69613106     0.10800
S1771       S  0.74909719  0.40341902  0.69858100    -0.32600
S1772       S  0.73784019  0.26496582  0.68586192    -0.32600
H1773       H  0.75553155  0.27392284  0.65704492     0.28800
H1774       H  0.71710920  0.38797051  0.68557525     0.28800
H1775       H  0.79629046  0.38661640  0.68014627     0.19400
H1776       H  0.70160651  0.28616567  0.72268032     0.19400
C1777       C  0.60739011  0.27607418  0.78779020    -0.06400
C1778       C  0.61467547  0.26750733  0.81774826    -0.17600
C1779       C  0.58990436  0.24375242  0.83725676     0.10800
C1780       C  0.55713883  0.22618628  0.82581052    -0.06400
C1781       C  0.55038515  0.23412016  0.79561915    -0.17600
C1782       C  0.57391041  0.26028297  0.77812662     0.10800
S1783       S  0.60159376  0.23841801  0.87671896    -0.32600
S1784       S  0.55850562  0.27554631  0.74723104    -0.32600
H1785       H  0.52871638  0.24643970  0.74128776     0.28800
H1786       H  0.57130408  0.23046604  0.89107928     0.28800
H1787       H  0.63962191  0.27996882  0.82678063     0.19400
H1788       H  0.52574952  0.22065946  0.78612235     0.19400
C1789       C  0.56507738  0.22295280  0.67834745    -0.06400
C1790       C  0.58140769  0.21636825  0.70266460    -0.17600
C1791       C  0.60738821  0.24167588  0.71980544     0.10800
C1792       C  0.61658557  0.27458541  0.71319912    -0.06400
C1793       C  0.60307114  0.28085277  0.68602110    -0.17600
C1794       C  0.57712927  0.25554813  0.66894141     0.10800
S1795       S  0.62747042  0.22970374  0.74917978    -0.32600
S1796       S  0.55928891  0.26656498  0.63655615    -0.32600
H1797       H  0.54721269  0.23714474  0.61939834     0.28800
H1798       H  0.65575858  0.26030108  0.75299097     0.28800
H1799       H  0.57306908  0.19127256  0.70910304     0.19400
H1800       H  0.61113370  0.30568149  0.67916834     0.19400
C1801       C  0.89019609  0.16580878  0.78252957    -0.06400
C1802       C  0.88178777  0.14588956  0.80972034    -0.17600
C1803       C  0.90609629  0.14745897  0.83063442     0.10800
C1804       C  0.93993608  0.16743622  0.82288786    -0.06400
C1805       C  0.94763925  0.18681758  0.79531647    -0.17600
C1806       C  0.92378913  0.18830547  0.77696169     0.10800
S1807       S  0.89193037  0.12522232  0.86737457    -0.32600
S1808       S  0.93900267  0.22205275  0.74945264    -0.32600
H1809       H  0.90988018  0.22351377  0.74671959     0.28800
H1810       H  0.91892421  0.14810367  0.88563719     0.28800
H1811       H  0.85600911  0.12948236  0.81513238     0.19400
H1812       H  0.97282865  0.20225543  0.78805173     0.19400
C1813       C  0.88875041  0.16029016  0.70845922    -0.06400
C1814       C  0.90494011  0.18361622  0.68448165    -0.17600
C1815       C  0.93207798  0.18563781  0.66808507     0.10800
C1816       C  0.94297501  0.16336111  0.67509194    -0.06400
C1817       C  0.92520702  0.13840245  0.69697387    -0.17600
C1818       C  0.89818600  0.13642495  0.71359773     0.10800
S1819       S  0.95251353  0.21789406  0.63941913    -0.32600
S1820       S  0.87612695  0.10302404  0.74080602    -0.32600
H1821       H  0.89404692  0.08687519  0.73495832     0.28800
H1822       H  0.46493494  0.20244735  0.62047780     0.28800
H1823       H  0.89774030  0.20174578  0.67986571     0.19400
H1824       H  0.93345836  0.12114324  0.70190916     0.19400
C1825       C  0.84438951  0.22803149  0.71088547    -0.06400
C1826       C  0.86927583  0.25936033  0.72062727    -0.17600
C1827       C  0.87056587  0.28773783  0.70889976     0.10800
C1828       C  0.84743882  0.28492819  0.68568472    -0.06400
C1829       C  0.82437519  0.25394666  0.67411838    -0.17600
C1830       C  0.82235513  0.22553917  0.68644997     0.10800
S1831       S  0.90097249  0.32632192  0.72590721    -0.32600
S1832       S  0.78921987  0.18670980  0.67279495    -0.32600
H1833       H  0.77705479  0.19844271  0.64866407     0.28800
H1834       H  0.88381955  0.34327300  0.72083230     0.28800
H1835       H  0.88647749  0.26166891  0.73914662     0.19400
H1836       H  0.80659872  0.25207519  0.65646293     0.19400
C1837       C  0.83331321  0.22113192  0.78282525    -0.06400
C1838       C  0.81163621  0.23144859  0.77209008    -0.17600
C1839       C  0.80998410  0.25707194  0.78679062     0.10800
C1840       C  0.82629643  0.26988173  0.81636398    -0.06400
C1841       C  0.84576802  0.25745251  0.82877909    -0.17600
C1842       C  0.85041528  0.23430094  0.81188493     0.10800
S1843       S  0.78939707  0.27400564  0.76418087    -0.32600
S1844       S  0.87986045  0.22428822  0.82799660    -0.32600
H1845       H  0.89527329  0.22771783  0.79853401     0.28800
H1846       H  0.81279959  0.30664142  0.77147496     0.28800
H1847       H  0.79725708  0.22085367  0.75062876     0.19400
H1848       H  0.85830172  0.26646216  0.85140611     0.19400
C1849       C  0.77709170  0.10968257  0.77852451    -0.06400
C1850       C  0.76621946  0.11637437  0.80739857    -0.17600
C1851       C  0.74227830  0.09120100  0.82628282     0.10800
C1852       C  0.72550146  0.05866131  0.81439649    -0.06400
C1853       C  0.73549279  0.05267493  0.78464806    -0.17600
C1854       C  0.76298014  0.07664611  0.76880422     0.10800
S1855       S  0.73703987  0.10220243  0.86611413    -0.32600
S1856       S  0.78105205  0.06170715  0.74005403    -0.32600
H1857       H  0.81233312  0.08944643  0.74101218     0.28800
H1858       H  0.73470143  0.07409243  0.87994831     0.28800
H1859       H  0.77735867  0.14129551  0.81603129     0.19400
H1860       H  0.72328563  0.02840316  0.77430852     0.19400
C1861       C  0.77541749  0.11835956  0.70584351    -0.06400
C1862       C  0.78104800  0.10238546  0.68039645    -0.17600
C1863       C  0.75463981  0.07622777  0.66470665     0.10800
C1864       C  0.72199820  0.06622772  0.67433265    -0.06400
C1865       C  0.71632850  0.08494750  0.69674406    -0.17600
C1866       C  0.74282894  0.11149861  0.71212845     0.10800
S1867       S  0.76420338  0.05480046  0.63460843    -0.32600
S1868       S  0.73493600  0.13655911  0.73942240    -0.32600
H1869       H  0.70065857  0.12115595  0.73424540     0.28800
H1870       H  0.73458315  0.04296637  0.61740496     0.28800
H1871       H  0.80605284  0.10838088  0.67459303     0.19400
H1872       H  0.69118476  0.07774102  0.70326175     0.19400
C1873       C  0.83578136  0.66726523  0.21361890     0.45100
H1874       H  0.83657826  0.66790648  0.18717917    -0.03900
C1875       C  0.83410512  0.66562907  0.27560386     0.45200
H1876       H  0.83327183  0.66477561  0.30197920    -0.03900
C1877       C  0.83887294  0.69837808  0.22892142    -0.17600
C1878       C  0.80340850  0.63941103  0.22716688    -0.17300
C1879       C  0.86350723  0.66290384  0.22852702    -0.17700
C1880       C  0.83699841  0.69711050  0.26188622    -0.17700
C1881       C  0.80332254  0.63725679  0.25993458    -0.17200
C1882       C  0.86347272  0.66379134  0.26145227    -0.17600
C1883       C  0.66458305  0.83561685  0.22174821     0.45100
H1884       H  0.66567599  0.83702014  0.19533750    -0.03900
C1885       C  0.66277759  0.83273772  0.28362155     0.45200
H1886       H  0.66254067  0.83225704  0.31007398    -0.03900
C1887       C  0.63695035  0.80258306  0.23477979    -0.17600
C1888       C  0.69636924  0.83909726  0.23640954    -0.17300
C1889       C  0.65950204  0.86245208  0.23796126    -0.17700
C1890       C  0.63456576  0.80197801  0.26777414    -0.17700
C1891       C  0.69515087  0.83719846  0.26918860    -0.17200
C1892       C  0.65920391  0.86089180  0.27066510    -0.17600
C1893       C  0.85408885  0.85666324  0.13887129     0.02800
C1894       C  0.82488169  0.85612717  0.14862584    -0.13300
C1895       C  0.80361276  0.83330909  0.17128158     0.00300
C1896       C  0.81239067  0.81122940  0.18373115    -0.11900
C1897       C  0.84023980  0.81022184  0.17314478     0.02800
C1898       C  0.86111927  0.83297047  0.15074775    -0.11300
H1899       H  0.81895928  0.87361612  0.13854475     0.08400
H1900       H  0.79718661  0.79408659  0.20152534     0.05900
H1901       H  0.88240390  0.83183737  0.14215096     0.05800
C1902       C  0.84823726  0.84788145  0.36397692     0.02800
C1903       C  0.85107808  0.82237796  0.34941821    -0.13300
C1904       C  0.82414150  0.79688816  0.33301832     0.00300
C1905       C  0.79415787  0.79688942  0.33244641    -0.11900
C1906       C  0.79205764  0.82392534  0.34292854     0.02800
C1907       C  0.81863298  0.84859012  0.36015498    -0.11300
H1908       H  0.87445720  0.82282682  0.35045578     0.08400
H1909       H  0.77294323  0.77682191  0.32119483     0.05900
H1910       H  0.81626924  0.86849627  0.37015686     0.05800
C1911       C  0.65004097  0.00289052  0.36587250     0.02800
C1912       C  0.67525887  0.53122285  0.35144175    -0.13300
C1913       C  0.70019271  0.52996781  0.33348487     0.00300
C1914       C  0.69879342  0.49962156  0.33020961    -0.11900
C1915       C  0.67193465  0.97086491  0.34138400     0.02800
C1916       C  0.64821077  0.97275103  0.36018058    -0.11300
H1917       H  0.67465216  0.55373957  0.35344040     0.08400
H1918       H  0.71745978  0.49770061  0.31664543     0.05900
H1919       H  0.62808991  0.95063594  0.37010823     0.05800
C1920       C  0.64850784  0.99901902  0.13079865     0.02800
C1921       C  0.67232347  0.52971473  0.14104864    -0.13300
C1922       C  0.69406766  0.53321664  0.16553983     0.00300
C1923       C  0.69090398  0.00616454  0.18103268    -0.11900
C1924       C  0.66874772  0.97448063  0.16987295     0.02800
C1925       C  0.64723578  0.97129629  0.14457344    -0.10800
H1926       H  0.67435618  0.55119340  0.12973019     0.08400
H1927       H  0.70583696  0.00982514  0.20198801     0.05900
H1928       H  0.62948168  0.94749209  0.13529647     0.05800
C1929       C  0.00466026  0.64564273  0.13336645     0.02800
C1930       C  0.53408534  0.67135263  0.14581525    -0.13300
C1931       C  0.53386569  0.69562562  0.16502787     0.00300
C1932       C  0.50372427  0.69346534  0.17310071    -0.11900
C1933       C  0.97426595  0.66708294  0.16274917     0.02800
C1934       C  0.97458146  0.64340936  0.14256166    -0.11300
H1935       H  0.55739894  0.67270519  0.14032842     0.08400
H1936       H  0.50347474  0.71165337  0.18881484     0.05900
H1937       H  0.95140195  0.62344474  0.13386123     0.05800
C1938       C  0.99838243  0.64482599  0.36516883     0.02800
C1939       C  0.96850159  0.64246029  0.35478503    -0.13300
C1940       C  0.96848486  0.66984768  0.34160638     0.00300
C1941       C  0.49818684  0.69885983  0.34081973    -0.11900
C1942       C  0.52843387  0.69954277  0.34315803     0.02800
C1943       C  0.52855806  0.67237882  0.35629951    -0.11300
H1944       H  0.94580895  0.61948518  0.35696735     0.08400
H1945       H  0.49834990  0.72090573  0.33354797     0.05900
H1946       H  0.55161292  0.67264964  0.36003422     0.05800
O1947       O  0.52404562  0.97117241  0.03856529    -0.85700
O1948       O  0.95761148  0.93467108  0.02573546    -0.82700
C1949       C  0.94088161  0.94399516  0.04180756     0.97800
O1950       O  0.94293978  0.97118877  0.03683625    -0.82700
O1951       O  0.97669000  0.53699007  0.02557602    -0.85400
C1952       C  0.50206426  0.55074462  0.04388779     1.02300
O1953       O  0.52661077  0.54688328  0.03957082    -0.78200
O1954       O  0.56278886  0.51799239  0.02029538    -0.78300
C1955       C  0.55322693  0.49504237  0.04005896     1.02300
O1956       O  0.53879797  0.97592893  0.47040231    -0.85700
O1957       O  0.97212256  0.94303055  0.45800815    -0.82700
C1958       C  0.94445884  0.94082152  0.45318983     0.97800
O1959       O  0.93534245  0.95771225  0.46925515    -0.82800
O1960       O  0.97165732  0.52283906  0.45766523    -0.85400
C1961       C  0.49555756  0.55128650  0.45591907     1.02300
O1962       O  0.51934999  0.56020333  0.47511354    -0.78200
O1963       O  0.54824678  0.52418061  0.45631272    -0.78300
C1964       C  0.55252717  0.00047935  0.45213356     1.02300
Cr1965     Cr  0.99795601  0.95899507  0.99860403     1.93700
Cr1966     Cr  0.96008026  0.99744478  0.49709278     1.93200
Cr1967     Cr  0.53570278  0.53393697  0.49801819     1.39100
O1968       O  0.99752015  0.99640600  0.99802259    -1.23400
C1969       C  0.99840277  0.61995350  0.38668582    -0.06400
C1970       C  0.51354818  0.63055594  0.41571584    -0.17600
C1971       C  0.51193044  0.60892603  0.43910092     0.10800
C1972       C  0.49592770  0.57499926  0.43247122    -0.06400
C1973       C  0.98079634  0.56422573  0.40312219    -0.17600
C1974       C  0.98205657  0.58610872  0.37982567     0.10800
S1975       S  0.52875599  0.62633305  0.47760815    -0.32600
S1976       S  0.96362013  0.56943513  0.34155440    -0.32600
H1977       H  0.98465238  0.59738705  0.32388620     0.28800
H1978       H  0.50198782  0.60178164  0.49458714     0.28800
H1979       H  0.52536554  0.65635691  0.42150609     0.19400
H1980       H  0.96858516  0.53839736  0.39746060     0.19400
C1981       C  0.00491573  0.62127577  0.11075727    -0.06400
C1982       C  0.98325534  0.58776910  0.11594290    -0.17600
C1983       C  0.98234144  0.56393209  0.09516400     0.10800
C1984       C  0.50390976  0.57382068  0.06868466    -0.06400
C1985       C  0.52619148  0.60701644  0.06405557    -0.17600
C1986       C  0.52622960  0.63088606  0.08394162     0.10800
S1987       S  0.95403719  0.52166120  0.10400364    -0.32600
S1988       S  0.55220271  0.67277633  0.07210713    -0.32600
H1989       H  0.52983043  0.68302167  0.08136159     0.28800
H1990       H  0.97348110  0.50949590  0.09081634     0.28800
H1991       H  0.96705562  0.58006565  0.13645698     0.19400
H1992       H  0.54258519  0.61452862  0.04370275     0.19400
C1993       C  0.57689308  0.49547251  0.06385572    -0.06400
C1994       C  0.60942095  0.00616236  0.05405409    -0.17600
C1995       C  0.63293213  0.00639784  0.07492578     0.10800
C1996       C  0.62391817  0.99568706  0.10659657    -0.06400
C1997       C  0.59110273  0.48505847  0.11666807    -0.17600
C1998       C  0.56798054  0.48567583  0.09580973     0.10800
S1999       S  0.67398581  0.02065539  0.05971209    -0.32600
S2000       S  0.52859194  0.47639580  0.11216958    -0.32600
H2001       H  0.52512761  0.49933534  0.09381938     0.28800
H2002       H  0.68174631  0.00178277  0.07989453     0.28800
H2003       H  0.61656290  0.01412484  0.02970665     0.19400
H2004       H  0.58424595  0.47808688  0.14127246     0.19400
C2005       C  0.57643333  0.00241567  0.42816482    -0.06400
C2006       C  0.61006392  0.52374464  0.43467151    -0.17600
C2007       C  0.63457116  0.52448399  0.41494087     0.10800
C2008       C  0.62522097  0.00417370  0.38705022    -0.06400
C2009       C  0.59145215  0.98335712  0.38056704    -0.17600
C2010       C  0.56703034  0.98220724  0.40084347     0.10800
S2011       S  0.67679617  0.54978805  0.42765525    -0.32600
S2012       S  0.52444162  0.95447479  0.39072215    -0.32600
H2013       H  0.51182593  0.97326064  0.40434861     0.28800
H2014       H  0.68742975  0.52805023  0.41773394     0.28800
H2015       H  0.61726495  0.53902533  0.45587247     0.19400
H2016       H  0.58406644  0.96773350  0.35962072     0.19400
C2017       C  0.92172975  0.91730483  0.42912532    -0.06400
C2018       C  0.90834816  0.92827996  0.40555683    -0.17600
C2019       C  0.88636641  0.90684602  0.38247408     0.10800
C2020       C  0.87571655  0.87303908  0.38399155    -0.06400
C2021       C  0.89005366  0.86240702  0.40700785    -0.17600
C2022       C  0.91291787  0.88402376  0.42929262     0.10800
S2023       S  0.87450728  0.92461822  0.35081650    -0.32600
S2024       S  0.92860195  0.86714913  0.45829227    -0.32600
H2025       H  0.92721423  0.88548809  0.48408419     0.28800
H2026       H  0.87027898  0.90119726  0.32762655     0.28800
H2027       H  0.91577847  0.95395401  0.40461693     0.19400
H2028       H  0.88238484  0.83671366  0.40854038     0.19400
C2029       C  0.91821575  0.92236142  0.06655835    -0.06400
C2030       C  0.93150398  0.91959962  0.09549558    -0.17600
C2031       C  0.91114201  0.89987597  0.12007596     0.10800
C2032       C  0.87656488  0.88104162  0.11521047    -0.06400
C2033       C  0.86327410  0.88447228  0.08639583    -0.17600
C2034       C  0.88364633  0.90491578  0.06217501     0.10800
S2035       S  0.93073744  0.90119344  0.15752561    -0.32600
S2036       S  0.86412404  0.90726991  0.02603608    -0.32600
H2037       H  0.88887079  0.90945258  0.00548913     0.28800
H2038       H  0.90389456  0.89615747  0.17669661     0.28800
H2039       H  0.95791951  0.93355834  0.09925021     0.19400
H2040       H  0.83687367  0.87038840  0.08231637     0.19400
C2041       C  0.66044854  0.89025172  0.22015091    -0.06400
C2042       C  0.69029585  0.91982469  0.21988541    -0.17600
C2043       C  0.69480277  0.94584502  0.20068222     0.10800
C2044       C  0.66711742  0.94514858  0.18572902    -0.06400
C2045       C  0.63665305  0.91587687  0.18742587    -0.17600
C2046       C  0.63338497  0.88821740  0.20293132     0.10800
S2047       S  0.73712080  0.97666456  0.19334066    -0.32600
S2048       S  0.59357436  0.85194812  0.19975115    -0.32600
H2049       H  0.59984444  0.83407381  0.22200540     0.28800
H2050       H  0.73089344  0.48180982  0.16193410     0.28800
H2051       H  0.71104372  0.92195299  0.23328216     0.19400
H2052       H  0.61481112  0.91421550  0.17672422     0.19400
C2053       C  0.66668322  0.93903797  0.32951765    -0.06400
C2054       C  0.63691622  0.91834189  0.31365279    -0.17600
C2055       C  0.63295597  0.89144869  0.29602039     0.10800
C2056       C  0.65985646  0.88602162  0.29252371    -0.06400
C2057       C  0.68842829  0.90480567  0.31073205    -0.17600
C2058       C  0.69204663  0.93099518  0.32939900     0.10800
S2059       S  0.59258744  0.86411363  0.28032105    -0.32600
S2060       S  0.72949569  0.95308505  0.35242672    -0.32600
H2061       H  0.71604679  0.96461411  0.37570119     0.28800
H2062       H  0.59544949  0.83611146  0.28391734     0.28800
H2063       H  0.61684497  0.92361223  0.31429869     0.19400
H2064       H  0.70819283  0.89919930  0.31033647     0.19400
C2065       C  0.76534026  0.82901410  0.32980033    -0.06400
C2066       C  0.77465065  0.85848786  0.31398243    -0.17600
C2067       C  0.75243536  0.86245960  0.29474958     0.10800
C2068       C  0.72029035  0.83572956  0.28972032    -0.06400
C2069       C  0.71064058  0.80672982  0.30638734    -0.17600
C2070       C  0.73219957  0.80349118  0.32718323     0.10800
S2071       S  0.76729653  0.90247735  0.27817369    -0.32600
S2072       S  0.71554378  0.76655020  0.35024719    -0.32600
H2073       H  0.73898875  0.78001691  0.37496364     0.28800
H2074       H  0.73712399  0.89805087  0.26705252     0.28800
H2075       H  0.79988065  0.87840691  0.31573140     0.19400
H2076       H  0.68602833  0.78625522  0.30312628     0.19400
C2077       C  0.77356348  0.83361507  0.18375039    -0.06400
C2078       C  0.77471841  0.86368468  0.18799246    -0.17600
C2079       C  0.74865022  0.86564362  0.20221082     0.10800
C2080       C  0.72238641  0.83784882  0.21654470    -0.06400
C2081       C  0.72026885  0.80758718  0.21111522    -0.17600
C2082       C  0.74430264  0.80492235  0.19335489     0.10800
S2083       S  0.74952411  0.90377069  0.19904291    -0.32600
S2084       S  0.73428041  0.76420204  0.18150634    -0.32600
H2085       H  0.75243935  0.77380723  0.15297287     0.28800
H2086       H  0.71749699  0.88894477  0.18615860     0.28800
H2087       H  0.79591284  0.88603884  0.17997951     0.19400
H2088       H  0.69901234  0.78563595  0.21957830     0.19400
C2089       C  0.60719570  0.77581957  0.28742741    -0.06400
C2090       C  0.61464650  0.76710073  0.31722535    -0.17600
C2091       C  0.58996259  0.74327558  0.33676209     0.10800
C2092       C  0.55715609  0.72571723  0.32541980    -0.06400
C2093       C  0.55027951  0.73376071  0.29533814    -0.17600
C2094       C  0.57364175  0.76018879  0.27799979     0.10800
S2095       S  0.60183641  0.73774421  0.37606544    -0.32600
S2096       S  0.55826644  0.77561219  0.24715492    -0.32600
H2097       H  0.52459129  0.75192512  0.24879989     0.28800
H2098       H  0.57156473  0.72956644  0.39059859     0.28800
H2099       H  0.63965893  0.77949721  0.32609657     0.19400
H2100       H  0.52574831  0.71993440  0.28570886     0.19400
C2101       C  0.56494074  0.72284420  0.17788742    -0.06400
C2102       C  0.58150872  0.71632709  0.20201617    -0.17600
C2103       C  0.60735188  0.74167831  0.21924326     0.10800
C2104       C  0.61621788  0.77453729  0.21282598    -0.06400
C2105       C  0.60252941  0.78076970  0.18576482    -0.17600
C2106       C  0.57666085  0.75543230  0.16867579     0.10800
S2107       S  0.62766153  0.72979242  0.24845896    -0.32600
S2108       S  0.55843752  0.76638592  0.13658136    -0.32600
H2109       H  0.54648695  0.73707635  0.11925483     0.28800
H2110       H  0.65562109  0.76052948  0.25279464     0.28800
H2111       H  0.57341192  0.69124140  0.20829282     0.19400
H2112       H  0.61037644  0.80557906  0.17903078     0.19400
C2113       C  0.89029125  0.66618059  0.28248914    -0.06400
C2114       C  0.88188579  0.64644427  0.30981767    -0.17600
C2115       C  0.90619163  0.64806015  0.33076188     0.10800
C2116       C  0.94002035  0.66785694  0.32292991    -0.06400
C2117       C  0.94775012  0.68715906  0.29528355    -0.17600
C2118       C  0.92389519  0.68858365  0.27683887     0.10800
S2119       S  0.89206418  0.62617253  0.36768722    -0.32600
S2120       S  0.93909755  0.72212145  0.24907669    -0.32600
H2121       H  0.90997187  0.72357598  0.24619695     0.28800
H2122       H  0.91919474  0.64910003  0.38577557     0.28800
H2123       H  0.85610875  0.63013475  0.31531055     0.19400
H2124       H  0.97293410  0.70254367  0.28801995     0.19400
C2125       C  0.88859467  0.66013885  0.20841512    -0.06400
C2126       C  0.90465414  0.68335295  0.18432051    -0.17600
C2127       C  0.93182626  0.68542663  0.16795435     0.10800
C2128       C  0.94277238  0.66319927  0.17501307    -0.06400
C2129       C  0.92514215  0.63834982  0.19703222    -0.17600
C2130       C  0.89821887  0.63644843  0.21376507     0.10800
S2131       S  0.95227377  0.71774520  0.13933905    -0.32600
S2132       S  0.87640769  0.60326086  0.24125308    -0.32600
H2133       H  0.89742821  0.59000227  0.23911383     0.28800
H2134       H  0.46466258  0.70207299  0.12004566     0.28800
H2135       H  0.89735349  0.70139500  0.17962415     0.19400
H2136       H  0.93338620  0.62107647  0.20192083     0.19400
C2137       C  0.84310376  0.72694624  0.20975878    -0.06400
C2138       C  0.86787951  0.75857153  0.21881638    -0.17600
C2139       C  0.86846454  0.78650177  0.20675494     0.10800
C2140       C  0.84483704  0.78294719  0.18377240    -0.06400
C2141       C  0.82188417  0.75167629  0.17284152    -0.17600
C2142       C  0.82046910  0.72369994  0.18560815     0.10800
S2143       S  0.89851303  0.82554300  0.22317093    -0.32600
S2144       S  0.78751683  0.68445657  0.17267238    -0.32600
H2145       H  0.77212013  0.69555143  0.15132734     0.28800
H2146       H  0.87971358  0.84104628  0.21962958     0.28800
H2147       H  0.88548096  0.76146435  0.23714966     0.19400
H2148       H  0.80383968  0.74926360  0.15524280     0.19400
C2149       C  0.83336670  0.72147636  0.28206607    -0.06400
C2150       C  0.81201035  0.73214126  0.27117339    -0.17600
C2151       C  0.81101693  0.75827221  0.28550063     0.10800
C2152       C  0.82725075  0.77102213  0.31508751    -0.06400
C2153       C  0.84635801  0.75830010  0.32772836    -0.17600
C2154       C  0.85062677  0.73479346  0.31105445     0.10800
S2155       S  0.79153924  0.77603459  0.26241810    -0.32600
S2156       S  0.87984274  0.72457355  0.32735366    -0.32600
H2157       H  0.89536476  0.72802149  0.29795185     0.28800
H2158       H  0.81524329  0.80846612  0.27008360     0.28800
H2159       H  0.79744709  0.72147665  0.24983336     0.19400
H2160       H  0.85890334  0.76735376  0.35034485     0.19400
C2161       C  0.77742517  0.60955862  0.27907996    -0.06400
C2162       C  0.76674656  0.61639448  0.30800513    -0.17600
C2163       C  0.74299135  0.59131371  0.32711126     0.10800
C2164       C  0.72621737  0.55870415  0.31543312    -0.06400
C2165       C  0.73606483  0.55253888  0.28569767    -0.17600
C2166       C  0.76335993  0.57645221  0.26959112     0.10800
S2167       S  0.73790385  0.60252946  0.36690247    -0.32600
S2168       S  0.78121904  0.56136566  0.24075702    -0.32600
H2169       H  0.81245398  0.58917972  0.24134595     0.28800
H2170       H  0.73538554  0.57439889  0.38087220     0.28800
H2171       H  0.77783831  0.64136693  0.31647083     0.19400
H2172       H  0.72385511  0.52818748  0.27553788     0.19400
C2173       C  0.77509993  0.61745866  0.20630048    -0.06400
C2174       C  0.78070361  0.60148092  0.18083727    -0.17600
C2175       C  0.75428919  0.57536936  0.16512400     0.10800
C2176       C  0.72165254  0.56547357  0.17467937    -0.06400
C2177       C  0.71600785  0.58412999  0.19717903    -0.17600
C2178       C  0.74251175  0.61057340  0.21266391     0.10800
S2179       S  0.76384500  0.55387164  0.13508934    -0.32600
S2180       S  0.73461684  0.63555873  0.24006559    -0.32600
H2181       H  0.70018771  0.61948720  0.23574451     0.28800
H2182       H  0.73418236  0.54188471  0.11793050     0.28800
H2183       H  0.80570162  0.60747209  0.17500665     0.19400
H2184       H  0.69086418  0.57695344  0.20366426     0.19400
C2185       C  0.83577258  0.66834561  0.71358789     0.45100
H2186       H  0.83669158  0.66944337  0.68715913    -0.03900
C2187       C  0.83371011  0.66574208  0.77554864     0.45200
H2188       H  0.83272140  0.66450369  0.80191170    -0.03900
C2189       C  0.83913020  0.69935037  0.72945558    -0.17600
C2190       C  0.80318886  0.64043123  0.72673844    -0.17300
C2191       C  0.86319836  0.66340017  0.72836243    -0.17700
C2192       C  0.83695365  0.69751454  0.76235063    -0.17700
C2193       C  0.80290243  0.63778745  0.75947497    -0.17200
C2194       C  0.86302697  0.66388641  0.76129781    -0.17600
C2195       C  0.66509673  0.83573253  0.72161674     0.45100
H2196       H  0.66636721  0.83716479  0.69521431    -0.03900
C2197       C  0.66272797  0.83264487  0.78347754     0.45200
H2198       H  0.66224917  0.83210130  0.80992686    -0.03900
C2199       C  0.63735883  0.80261461  0.73444830    -0.17600
C2200       C  0.69681904  0.83926272  0.73660966    -0.17300
C2201       C  0.65978661  0.86248242  0.73775263    -0.17700
C2202       C  0.63470211  0.80191410  0.76741876    -0.17700
C2203       C  0.69525051  0.83719112  0.76937212    -0.17200
C2204       C  0.65922234  0.86080928  0.77044839    -0.17600
C2205       C  0.85601524  0.85849219  0.64004645     0.02800
C2206       C  0.82679638  0.85787756  0.64991457    -0.13300
C2207       C  0.80629902  0.83579918  0.67347558     0.00300
C2208       C  0.81602223  0.81479278  0.68682327    -0.11900
C2209       C  0.84341676  0.81330835  0.67563412     0.02800
C2210       C  0.86363211  0.83539243  0.65244122    -0.11300
H2211       H  0.82026362  0.87466514  0.63918459     0.08400
H2212       H  0.80160078  0.79847927  0.70548540     0.05900
H2213       H  0.88476034  0.83414039  0.64355066     0.05800
C2214       C  0.84730454  0.84700930  0.86540719     0.02800
C2215       C  0.84991765  0.82135477  0.85094522    -0.13300
C2216       C  0.82287178  0.79592942  0.83459033     0.00300
C2217       C  0.79296605  0.79607574  0.83418591    -0.11900
C2218       C  0.79115040  0.82336089  0.84437390     0.02800
C2219       C  0.81788501  0.84804068  0.86144793    -0.11300
H2220       H  0.87324065  0.82169068  0.85199040     0.08400
H2221       H  0.77161935  0.77595346  0.82319542     0.05900
H2222       H  0.81583290  0.86822543  0.87118191     0.05800
C2223       C  0.64990592  0.00277782  0.86568415     0.02800
C2224       C  0.67440911  0.53122545  0.85013539    -0.13300
C2225       C  0.69935478  0.53007734  0.83211954     0.00300
C2226       C  0.69809943  0.49980464  0.82881419    -0.11900
C2227       C  0.67169221  0.97079504  0.84091213     0.02800
C2228       C  0.64810001  0.97265723  0.85993593    -0.11300
H2229       H  0.67371493  0.55369409  0.85218831     0.08400
H2230       H  0.71678460  0.49797981  0.81518473     0.05900
H2231       H  0.62811304  0.95054656  0.87001660     0.05800
C2232       C  0.64842303  0.99908859  0.63079867     0.02800
C2233       C  0.67305873  0.52991891  0.64024324    -0.13300
C2234       C  0.69485278  0.53358680  0.66475240     0.00300
C2235       C  0.69076054  0.00633354  0.68110736    -0.11900
C2236       C  0.66858829  0.97460740  0.67003113     0.02800
C2237       C  0.64707255  0.97138132  0.64471095    -0.10800
H2238       H  0.67488574  0.55133323  0.62897677     0.08400
H2239       H  0.70567005  0.01005661  0.70209216     0.05900
H2240       H  0.62928211  0.94756467  0.63549280     0.05800
C2241       C  0.00431234  0.64572476  0.63354545     0.02800
C2242       C  0.53386420  0.67127796  0.64580757    -0.13300
C2243       C  0.53385284  0.69557103  0.66517293     0.00300
C2244       C  0.50378781  0.69344748  0.67354355    -0.11900
C2245       C  0.97388514  0.66720187  0.66282182     0.02800
C2246       C  0.97421978  0.64345410  0.64274887    -0.11300
H2247       H  0.55711512  0.67258666  0.64011300     0.08400
H2248       H  0.50369169  0.71165619  0.68933915     0.05900
H2249       H  0.95105056  0.62342566  0.63410927     0.05800
C2250       C  0.99817055  0.64465313  0.86435556     0.02800
C2251       C  0.96827367  0.64232186  0.85411108    -0.13300
C2252       C  0.96826241  0.66968077  0.84088453     0.00300
C2253       C  0.49840816  0.69929914  0.84041180    -0.11900
C2254       C  0.52846409  0.69961183  0.84267579     0.02800
C2255       C  0.52836838  0.67246548  0.85611618    -0.11300
H2256       H  0.94556465  0.61938828  0.85645352     0.08400
H2257       H  0.49881753  0.72141439  0.83296054     0.05900
H2258       H  0.55131061  0.67249106  0.85977658     0.05800
O2259       O  0.52418892  0.97123909  0.53844586    -0.85700
O2260       O  0.95789215  0.93486084  0.52492227    -0.82700
C2261       C  0.94139929  0.94423939  0.54131888     0.97800
O2262       O  0.94353536  0.97149355  0.53653930    -0.82700
O2263       O  0.97697977  0.53700385  0.52597055    -0.85400
C2264       C  0.50151400  0.55048443  0.54394232     1.02300
O2265       O  0.52607320  0.54659547  0.53982761    -0.78200
O2266       O  0.56237148  0.51771423  0.52085025    -0.78300
C2267       C  0.55289349  0.49461263  0.54042646     1.02300
O2268       O  0.53896072  0.97597969  0.97063800    -0.85700
O2269       O  0.97182322  0.94236843  0.95886382    -0.82700
C2270       C  0.94421342  0.94024802  0.95387869     0.97800
O2271       O  0.93516683  0.95733374  0.96967737    -0.82800
O2272       O  0.97127247  0.52287392  0.95719240    -0.85400
C2273       C  0.49571450  0.55178999  0.95596082     1.02300
O2274       O  0.51962265  0.56065103  0.97500026    -0.78200
O2275       O  0.54829312  0.52447662  0.95584345    -0.78300
C2276       C  0.55279232  0.00054479  0.95240447     1.02300
Cr2277     Cr  0.99824179  0.95935081  0.49773962     1.93700
Cr2278     Cr  0.95978099  0.99709233  0.99742077     1.93200
Cr2279     Cr  0.53601145  0.53426265  0.99766514     1.39100
O2280       O  0.99782434  0.99677036  0.49738409    -1.23400
C2281       C  0.99816007  0.61986554  0.88599707    -0.06400
C2282       C  0.51334859  0.63105438  0.91595144    -0.17600
C2283       C  0.51192070  0.60944985  0.93928256     0.10800
C2284       C  0.49589806  0.57552007  0.93265553    -0.06400
C2285       C  0.98048562  0.56417653  0.90257853    -0.17600
C2286       C  0.98182851  0.58601296  0.87919879     0.10800
S2287       S  0.52907501  0.62687969  0.97769773    -0.32600
S2288       S  0.96344700  0.56926144  0.84092740    -0.32600
H2289       H  0.98445893  0.59718534  0.82321642     0.28800
H2290       H  0.50250032  0.60229164  0.99484305     0.28800
H2291       H  0.52523546  0.65686991  0.92169496     0.19400
H2292       H  0.96833274  0.53834355  0.89694800     0.19400
C2293       C  0.00461714  0.62134010  0.61097702    -0.06400
C2294       C  0.98321089  0.58781342  0.61632537    -0.17600
C2295       C  0.98249770  0.56397548  0.59566188     0.10800
C2296       C  0.50324088  0.57364126  0.56863410    -0.06400
C2297       C  0.52554445  0.60683474  0.56399645    -0.17600
C2298       C  0.52563827  0.63074405  0.58388356     0.10800
S2299       S  0.95458508  0.52168055  0.60476330    -0.32600
S2300       S  0.55168190  0.67261676  0.57203232    -0.32600
H2301       H  0.52942135  0.68296172  0.58140837     0.28800
H2302       H  0.97418788  0.50971839  0.59153337     0.28800
H2303       H  0.96708510  0.58009863  0.63689445     0.19400
H2304       H  0.54196766  0.61431627  0.54366936     0.19400
C2305       C  0.57678022  0.49493605  0.56390970    -0.06400
C2306       C  0.60935949  0.00555150  0.55373783    -0.17600
C2307       C  0.63279379  0.00576916  0.57471022     0.10800
C2308       C  0.62386408  0.99574250  0.60656347    -0.06400
C2309       C  0.59149631  0.48366399  0.61610401    -0.17600
C2310       C  0.56798168  0.48400913  0.59560410     0.10800
S2311       S  0.67366322  0.01920580  0.55941778    -0.32600
S2312       S  0.52817534  0.47284031  0.61218219    -0.32600
H2313       H  0.52400819  0.49606658  0.59508640     0.28800
H2314       H  0.68121610  0.00051087  0.58006107     0.28800
H2315       H  0.61639974  0.01296194  0.52924951     0.19400
H2316       H  0.58471382  0.47587046  0.64054368     0.19400
C2317       C  0.57665671  0.00238483  0.92843031    -0.06400
C2318       C  0.60995613  0.52354082  0.93405876    -0.17600
C2319       C  0.63428700  0.52419018  0.91413528     0.10800
C2320       C  0.62523026  0.00404064  0.88707991    -0.06400
C2321       C  0.59143495  0.98330981  0.88069048    -0.17600
C2322       C  0.56712221  0.98221659  0.90107656     0.10800
S2323       S  0.67659555  0.54904911  0.92680105    -0.32600
S2324       S  0.52448485  0.95460416  0.89104032    -0.32600
H2325       H  0.51204447  0.97356893  0.90460061     0.28800
H2326       H  0.68696904  0.52726358  0.91635255     0.28800
H2327       H  0.61733194  0.53860070  0.95541490     0.19400
H2328       H  0.58394113  0.96773093  0.85970911     0.19400
C2329       C  0.92139230  0.91660101  0.92996313    -0.06400
C2330       C  0.90868214  0.92762883  0.90579975    -0.17600
C2331       C  0.88639628  0.90602592  0.88300384     0.10800
C2332       C  0.87492794  0.87210671  0.88529567    -0.06400
C2333       C  0.88857273  0.86137075  0.90892564    -0.17600
C2334       C  0.91156875  0.88309518  0.93106955     0.10800
S2335       S  0.87503763  0.92362991  0.85079827    -0.32600
S2336       S  0.92596346  0.86617773  0.96127317    -0.32600
H2337       H  0.92401655  0.88502332  0.98629058     0.28800
H2338       H  0.87017524  0.89955504  0.82813414     0.28800
H2339       H  0.91677009  0.95342462  0.90425477     0.19400
H2340       H  0.88019626  0.83556221  0.91106313     0.19400
C2341       C  0.91901037  0.92269652  0.56631035    -0.06400
C2342       C  0.93232344  0.92234198  0.59610022    -0.17600
C2343       C  0.91222362  0.90287959  0.62095235     0.10800
C2344       C  0.87792960  0.88227748  0.61574220    -0.06400
C2345       C  0.86451699  0.88329358  0.58608327    -0.17600
C2346       C  0.88462718  0.90316295  0.56139609     0.10800
S2347       S  0.93168442  0.90650184  0.65905517    -0.32600
S2348       S  0.86497520  0.90232557  0.52416412    -0.32600
H2349       H  0.89118924  0.90651463  0.50463849     0.28800
H2350       H  0.90406083  0.90041767  0.67751167     0.28800
H2351       H  0.95851415  0.93786939  0.60022464     0.19400
H2352       H  0.83829071  0.86778239  0.58179787     0.19400
C2353       C  0.66064591  0.89028146  0.71997697    -0.06400
C2354       C  0.69036880  0.91997824  0.71991610    -0.17600
C2355       C  0.69477062  0.94606159  0.70085961     0.10800
C2356       C  0.66704961  0.94528766  0.68588424    -0.06400
C2357       C  0.63667210  0.91589636  0.68744793    -0.17600
C2358       C  0.63354061  0.88820442  0.70279629     0.10800
S2359       S  0.73705249  0.97704884  0.69367308    -0.32600
S2360       S  0.59383588  0.85182155  0.69949242    -0.32600
H2361       H  0.60014817  0.83398909  0.72176523     0.28800
H2362       H  0.73177700  0.48210663  0.66142736     0.28800
H2363       H  0.71111949  0.92217593  0.73336937     0.19400
H2364       H  0.61479391  0.91415472  0.67675010     0.19400
C2365       C  0.66651962  0.93896363  0.82914248    -0.06400
C2366       C  0.63669400  0.91807917  0.81345147    -0.17600
C2367       C  0.63279599  0.89117613  0.79586471     0.10800
C2368       C  0.65980000  0.88592338  0.79226795    -0.06400
C2369       C  0.68845629  0.90491668  0.81028863    -0.17600
C2370       C  0.69201469  0.93110569  0.82891261     0.10800
S2371       S  0.59242812  0.86367873  0.78024260    -0.32600
S2372       S  0.72958076  0.95345917  0.85172002    -0.32600
H2373       H  0.71617467  0.96499851  0.87502827     0.28800
H2374       H  0.59546376  0.83576249  0.78372768     0.28800
H2375       H  0.61653906  0.92322380  0.81417506     0.19400
H2376       H  0.70834767  0.89949190  0.80974736     0.19400
C2377       C  0.76468142  0.82867733  0.83092179    -0.06400
C2378       C  0.77434517  0.85809769  0.81482666    -0.17600
C2379       C  0.75242124  0.86216848  0.79521820     0.10800
C2380       C  0.72017986  0.83561358  0.79017399    -0.06400
C2381       C  0.71024161  0.80663330  0.80697585    -0.17600
C2382       C  0.73148250  0.80330727  0.82812599     0.10800
S2383       S  0.76783045  0.90199534  0.77796447    -0.32600
S2384       S  0.71433796  0.76641403  0.85132330    -0.32600
H2385       H  0.73765113  0.77975530  0.87615940     0.28800
H2386       H  0.73778172  0.89798620  0.76694757     0.28800
H2387       H  0.79964722  0.87786412  0.81660385     0.19400
H2388       H  0.68567357  0.78619016  0.80346364     0.19400
C2389       C  0.77574896  0.83537660  0.68554899    -0.06400
C2390       C  0.77567070  0.86496046  0.68852893    -0.17600
C2391       C  0.74902210  0.86629310  0.70222133     0.10800
C2392       C  0.72332120  0.83846771  0.71712483    -0.06400
C2393       C  0.72253814  0.80865294  0.71307918    -0.17600
C2394       C  0.74713934  0.80644270  0.69589503     0.10800
S2395       S  0.74884482  0.90384688  0.69829064    -0.32600
S2396       S  0.73859907  0.76577599  0.68571253    -0.32600
H2397       H  0.75640261  0.77481912  0.65696118     0.28800
H2398       H  0.71682163  0.88828863  0.68537068     0.28800
H2399       H  0.79638264  0.88740631  0.67998819     0.19400
H2400       H  0.70189548  0.78661470  0.72223629     0.19400
C2401       C  0.60727425  0.77562141  0.78689873    -0.06400
C2402       C  0.61465074  0.76692124  0.81673303    -0.17600
C2403       C  0.58997150  0.74304090  0.83618145     0.10800
C2404       C  0.55721464  0.72546056  0.82476322    -0.06400
C2405       C  0.55037872  0.73338633  0.79460250    -0.17600
C2406       C  0.57375617  0.75985877  0.77730712     0.10800
S2407       S  0.60178782  0.73749868  0.87550553    -0.32600
S2408       S  0.55840661  0.77531915  0.74647678    -0.32600
H2409       H  0.52487838  0.75111437  0.74748303     0.28800
H2410       H  0.57162541  0.72969761  0.89005717     0.28800
H2411       H  0.63958017  0.77943947  0.82577580     0.19400
H2412       H  0.52580578  0.71954708  0.78499373     0.19400
C2413       C  0.56508454  0.72280093  0.67782481    -0.06400
C2414       C  0.58176890  0.71632421  0.70186633    -0.17600
C2415       C  0.60778180  0.74170933  0.71891009     0.10800
C2416       C  0.61671036  0.77457535  0.71242206    -0.06400
C2417       C  0.60294979  0.78075650  0.68538660    -0.17600
C2418       C  0.57689560  0.75537724  0.66847781     0.10800
S2419       S  0.62819896  0.72987585  0.74805186    -0.32600
S2420       S  0.55851860  0.76627197  0.63648326    -0.32600
H2421       H  0.54633967  0.73686663  0.61927875     0.28800
H2422       H  0.65610936  0.76065568  0.75231279     0.28800
H2423       H  0.57362859  0.69125206  0.70823595     0.19400
H2424       H  0.61084070  0.80556542  0.67859977     0.19400
C2425       C  0.88986509  0.66619103  0.78225292    -0.06400
C2426       C  0.88153004  0.64640707  0.80953871    -0.17600
C2427       C  0.90590439  0.64795970  0.83035143     0.10800
C2428       C  0.93971315  0.66770102  0.82237983    -0.06400
C2429       C  0.94735258  0.68698742  0.79473946    -0.17600
C2430       C  0.92346056  0.68856439  0.77652379     0.10800
S2431       S  0.89188417  0.62605116  0.86727575    -0.32600
S2432       S  0.93862128  0.72229057  0.74900302    -0.32600
H2433       H  0.90957215  0.72393749  0.74668388     0.28800
H2434       H  0.91908808  0.64895880  0.88529711     0.28800
H2435       H  0.85576796  0.63012006  0.81510574     0.19400
H2436       H  0.97250673  0.70227813  0.78732506     0.19400
C2437       C  0.88817351  0.66048181  0.70820237    -0.06400
C2438       C  0.90437351  0.68371160  0.68415405    -0.17600
C2439       C  0.93153288  0.68567723  0.66785535     0.10800
C2440       C  0.94237303  0.66337990  0.67497897    -0.06400
C2441       C  0.92458832  0.63850398  0.69692447    -0.17600
C2442       C  0.89763959  0.63666672  0.71354982     0.10800
S2443       S  0.95208897  0.71791727  0.63919157    -0.32600
S2444       S  0.87556466  0.60335262  0.74084975    -0.32600
H2445       H  0.89722765  0.59078870  0.73971620     0.28800
H2446       H  0.46468885  0.70208352  0.62056665     0.28800
H2447       H  0.89720513  0.70184795  0.67944489     0.19400
H2448       H  0.93269830  0.62112720  0.70181428     0.19400
C2449       C  0.84396253  0.72844941  0.71091289    -0.06400
C2450       C  0.86940372  0.75970146  0.72013474    -0.17600
C2451       C  0.87097067  0.78818495  0.70832591     0.10800
C2452       C  0.84737260  0.78549948  0.68572486    -0.06400
C2453       C  0.82357147  0.75451883  0.67480003    -0.17600
C2454       C  0.82136591  0.72605201  0.68715873     0.10800
S2455       S  0.90242558  0.82678341  0.72438247    -0.32600
S2456       S  0.78740797  0.68728649  0.67449312    -0.32600
H2457       H  0.77323061  0.69912045  0.65252917     0.28800
H2458       H  0.88561461  0.84415454  0.71985815     0.28800
H2459       H  0.88693309  0.76190849  0.73824580     0.19400
H2460       H  0.80547606  0.75274623  0.65758365     0.19400
C2461       C  0.83296322  0.72144781  0.78280572    -0.06400
C2462       C  0.81129247  0.73178360  0.77211345    -0.17600
C2463       C  0.80957457  0.75732901  0.78689534     0.10800
C2464       C  0.82589665  0.77009086  0.81648565    -0.06400
C2465       C  0.84531245  0.75759025  0.82888187    -0.17600
C2466       C  0.84996236  0.73446768  0.81194119     0.10800
S2467       S  0.78877813  0.77412085  0.76438304    -0.32600
S2468       S  0.87920685  0.72423624  0.82816745    -0.32600
H2469       H  0.89463782  0.72748200  0.79874246     0.28800
H2470       H  0.81207330  0.80678885  0.77167458     0.28800
H2471       H  0.79687224  0.72118916  0.75067883     0.19400
H2472       H  0.85778481  0.76650525  0.85154998     0.19400
C2473       C  0.77680635  0.60995481  0.77828320    -0.06400
C2474       C  0.76596291  0.61662231  0.80718665    -0.17600
C2475       C  0.74208998  0.59143831  0.82608739     0.10800
C2476       C  0.72536857  0.55890983  0.81420278    -0.06400
C2477       C  0.73533905  0.55291858  0.78445634    -0.17600
C2478       C  0.76274647  0.57691728  0.76855287     0.10800
S2479       S  0.73683656  0.60240775  0.86592501    -0.32600
S2480       S  0.78070626  0.56197943  0.73967217    -0.32600
H2481       H  0.81185206  0.58990476  0.74009319     0.28800
H2482       H  0.73452190  0.57429911  0.87973624     0.28800
H2483       H  0.77705018  0.64154148  0.81581468     0.19400
H2484       H  0.72315977  0.52862352  0.77416344     0.19400
C2485       C  0.77510156  0.61859361  0.70555364    -0.06400
C2486       C  0.78105730  0.60286320  0.68009090    -0.17600
C2487       C  0.75489461  0.57643871  0.66443041     0.10800
C2488       C  0.72214232  0.56601172  0.67398947    -0.06400
C2489       C  0.71609258  0.58446599  0.69640341    -0.17600
C2490       C  0.74233922  0.61118586  0.71186964     0.10800
S2491       S  0.76497054  0.55520167  0.63455224    -0.32600
S2492       S  0.73387722  0.63571515  0.73934708    -0.32600
H2493       H  0.69947555  0.61936738  0.73475396     0.28800
H2494       H  0.73524482  0.54261966  0.61739420     0.28800
H2495       H  0.80616682  0.60920202  0.67431806     0.19400
H2496       H  0.69085281  0.57690501  0.70287127     0.19400
loop_ 
_geom_bond_atom_site_label_1 
_geom_bond_atom_site_label_2 
_geom_bond_distance 
_geom_bond_site_symmetry_2 
_ccdc_geom_bond_type 
C1            H2   1.110       .  S
C1            C7   1.544       .  S
C1            C6   1.539       .  S
C1            C5   1.540       .  S
C3            H4   1.108       .  S
C3            C9   1.538       .  S
C3            C8   1.539       .  S
C3           C10   1.535       .  S
C5            C8   1.384       .  D
C5          C265   1.501       .  S
C6            C9   1.379       .  D
C6          C301   1.489       .  S
C7           C10   1.382       .  D
C7          C253   1.501       .  S
C8          C277   1.499       .  S
C9          C289   1.501       .  S
C10         C241   1.490       .  S
C11          H12   1.110       .  S
C11          C17   1.555       .  S
C11          C16   1.540       .  S
C11          C15   1.551       .  S
C13          H14   1.110       .  S
C13          C19   1.543       .  S
C13          C18   1.540       .  S
C13          C20   1.525       .  S
C15          C18   1.388       .  D
C15         C232   1.501       .  S
C16          C19   1.378       .  D
C16         C208   1.498       .  S
C17          C20   1.374       .  D
C17         C169   1.498       .  S
C18         C217   1.509       .  S
C19         C196   1.487       .  S
C20         C184   1.484       .  S
C21          C22   1.412       .  A
C21          C26   1.408       .  A
C21         C160   1.489       .  S
C22          C23   1.414       .  A
C22          H27   1.082       .  S
C23          C24   1.401       .  A
C23         C205   1.505       .  S
C24          C25   1.397       .  A
C24          H28   1.072       .  S
C25          C26   1.399       .  A
C25         C268   1.480       .  S
C26          H29   1.084       .  S
C30          C31   1.411       .  A
C30          C35   1.409       .  A
C30         C148   1.495       .  S
C31          C32   1.410       .  A
C31          H36   1.083       .  S
C32          C33   1.401       .  A
C32         C280   1.499       .  S
C33          C34   1.398       .  A
C33          H37   1.078       .  S
C34          C35   1.404       .  A
C34         C193   1.491       .  S
C35          H38   1.082       .  S
C39          C44   1.403       .  A
C39         C664   1.412       .  A
C39         C136   1.485       .  S
C40          C41   1.412       .  A
C40         C663   1.411       .  A
C40          H45   1.081       .  S
C41          C42   1.408   1_545  A
C41         C292   1.504       .  S
C42         C667   1.397       .  A
C42          H46   1.081       .  S
C43          C44   1.398       .  A
C43         C666   1.396       .  A
C43         C181   1.481       .  S
C44          H47   1.084       .  S
C48          C53   1.410       .  A
C48         C673   1.401       .  A
C48         C124   1.482       .  S
C49          C50   1.395       .  A
C49         C672   1.401   1_545  A
C49          H54   1.084       .  S
C50         C675   1.399       .  A
C50         C304   1.473       .  S
C51          C52   1.407       .  A
C51         C674   1.399       .  A
C51          H55   1.081       .  S
C52          C53   1.417       .  A
C52         C172   1.509       .  S
C53          H56   1.082       .  S
C57          C62   1.410       .  A
C57        C1306   1.409       .  A
C57         C109   1.493       .  S
C58          C59   1.402       .  A
C58        C1305   1.409       .  A
C58          H63   1.083       .  S
C59          C60   1.402       .  A
C59         C229   1.479       .  S
C60        C1309   1.401   1_455  A
C60          H64   1.084       .  S
C61          C62   1.405       .  A
C61        C1308   1.401       .  A
C61         C256   1.482       .  S
C62          H65   1.084       .  S
C66          C67   1.412       .  A
C66        C1319   1.410       .  A
C66          C97   1.486       .  S
C67          C68   1.411       .  A
C67          H72   1.079       .  S
C68        C1317   1.404       .  A
C68         C244   1.506       .  S
C69          C70   1.400   1_655  A
C69        C1316   1.404       .  A
C69          H73   1.084       .  S
C70          C71   1.403       .  A
C70         C220   1.496       .  S
C71        C1314   1.410   1_455  A
C71          H74   1.082       .  S
O75       Cr1341   1.987   1_454  S
O75         C707   1.258       .  A
O76         Cr93   2.007   1_554  S
O76          C77   1.264       .  A
C77         C157   1.476       .  S
C77          O78   1.259       .  A
O78        Cr406   1.979   1_554  S
O79       Cr1030   2.022   1_544  S
O79        C1328   1.271       .  A
C80         C112   1.475       .  S
C80          O81   1.261       .  A
C80        O1327   1.271   1_455  A
O81        Cr407   1.972   1_554  S
O82        Cr407   2.005   1_554  S
O82          C83   1.261   1_545  A
C83         C121   1.482       .  S
C83         O699   1.258       .  A
O84       Cr1653   2.020   1_455  S
O84          C92   1.270       .  A
O85        Cr405   1.977       .  S
O85          C86   1.260       .  A
C86         C145   1.480       .  S
C86          O87   1.266       .  A
O87         Cr94   2.008       .  S
O88        Cr718   1.989   1_545  S
O88        C1337   1.259       .  A
C89         C100   1.489       .  S
C89          O90   1.262   1_655  A
C89        O1336   1.259       .  A
O90         Cr95   2.003       .  S
O91         Cr95   1.970       .  S
O91         C716   1.260       .  A
C92         C133   1.470       .  S
C92         O715   1.260       .  A
Cr93       O1323   1.987   1_556  S
Cr93       O1644   2.021       .  S
Cr93        O397   1.978       .  S
Cr93         O96   1.778       .  S
Cr94        O390   1.980       .  S
Cr94       O1015   2.021       .  S
Cr94        O712   1.991       .  S
Cr94        O408   1.779       .  S
Cr95        O393   1.973       .  S
Cr95        O394   2.006       .  S
Cr95       O2280   1.782   1_445  S
O96        Cr406   1.779       .  S
O96       Cr2279   1.782       .  S
C97         C102   1.415       .  A
C97        C1346   1.402       .  A
C98          C99   1.396       .  A
C98        C1345   1.402   1_455  A
C98         H107   1.085       .  S
C99         C100   1.417   1_455  A
C99         S103   1.802       .  S
C100       C1349   1.408       .  A
C101        C102   1.407       .  A
C101       C1348   1.408       .  A
C101        H108   1.084       .  S
C102        S104   1.803       .  S
S103        H106   1.407       .  S
S104        H105   1.406       .  S
C109        C110   1.409       .  A
C109       C1362   1.418       .  A
C110        C111   1.404       .  A
C110        H119   1.084       .  S
C111       C1360   1.410       .  A
C111        S115   1.803       .  S
C112        C113   1.400       .  A
C112       C1359   1.410   1_455  A
C113        C114   1.398       .  A
C113        H120   1.083       .  S
C114       C1357   1.418       .  A
C114        S116   1.804       .  S
S115        H118   1.406       .  S
S116        H117   1.407       .  S
C121        C126   1.414       .  A
C121        C746   1.406   1_565  A
C122        C123   1.401       .  A
C122        C745   1.406       .  A
C122        H131   1.084       .  S
C123        C124   1.412       .  A
C123        S127   1.804       .  S
C124        C749   1.404       .  A
C125        C126   1.403       .  A
C125        C748   1.404       .  A
C125        H132   1.084       .  S
C126        S128   1.802       .  S
S127        H130   1.406       .  S
S128        H129   1.407       .  S
C133        C138   1.410       .  A
C133        C758   1.401       .  A
C134        C135   1.398       .  A
C134        C757   1.401       .  A
C134        H143   1.084       .  S
C135        C760   1.414       .  A
C135        S139   1.803       .  S
C136        C137   1.408       .  A
C136        C759   1.415       .  A
C137        C138   1.401       .  A
C137        H144   1.084       .  S
C138        S140   1.803       .  S
S139        H142   1.406       .  S
S140        H141   1.406       .  S
C145        C146   1.403       .  A
C145        C150   1.414       .  A
C146        C147   1.403       .  A
C146        H155   1.084       .  S
C147        C148   1.419       .  A
C147        S151   1.804       .  S
C148        C149   1.406       .  A
C149        C150   1.400       .  A
C149        H156   1.084       .  S
C150        S152   1.803       .  S
S151        H154   1.407       .  S
S152        H153   1.403       .  S
C157        C158   1.400       .  A
C157        C162   1.412       .  A
C158        C159   1.401       .  A
C158        H167   1.081       .  S
C159        C160   1.416       .  A
C159        S163   1.804       .  S
C160        C161   1.406       .  A
C161        C162   1.403       .  A
C161        H168   1.084       .  S
C162        S164   1.802       .  S
S163        H166   1.407       .  S
S164        H165   1.403       .  S
C169        C170   1.398       .  A
C169        C174   1.418       .  A
C170        C171   1.400       .  A
C170        H179   1.081       .  S
C171        C172   1.424       .  A
C171        S175   1.805       .  S
C172        C173   1.408       .  A
C173        C174   1.403       .  A
C173        H180   1.081       .  S
C174        S176   1.798       .  S
S175        H802   1.407       .  S
S176        H177   1.388       .  S
H178        S799   1.407       .  S
C181        C182   1.404       .  A
C181        C186   1.413       .  A
C182        C183   1.397       .  A
C182        H191   1.084       .  S
C183        C184   1.410       .  A
C183        S187   1.795       .  S
C184        C185   1.402       .  A
C185        C186   1.398       .  A
C185        H192   1.080       .  S
C186        S188   1.804       .  S
S187        H190   1.404       .  S
S188        H189   1.407       .  S
C193        C194   1.407       .  A
C193        C198   1.415       .  A
C194        C195   1.401       .  A
C194        H203   1.084       .  S
C195        C196   1.415       .  A
C195        S199   1.803       .  S
C196        C197   1.402       .  A
C197        C198   1.399       .  A
C197        H204   1.080       .  S
C198        S200   1.805       .  S
S199        H202   1.399       .  S
S200        H201   1.407       .  S
C205        C206   1.405       .  A
C205        C210   1.425       .  A
C206        C207   1.400       .  A
C206        H215   1.082       .  S
C207        C208   1.413       .  A
C207        S211   1.788       .  S
C208        C209   1.400       .  A
C209        C210   1.403       .  A
C209        H216   1.080       .  S
C210        S212   1.806       .  S
S211        H214   1.405       .  S
S212        H213   1.407       .  S
C217        C218   1.415       .  A
C217        C222   1.415       .  A
C218        C219   1.408       .  A
C218        H227   1.078       .  S
C219        C220   1.411       .  A
C219        S223   1.802       .  S
C220        C221   1.403       .  A
C221        C222   1.390       .  A
C221        H228   1.075       .  S
C222        S224   1.803       .  S
S223        H226   1.406       .  S
S224        H225   1.407       .  S
C229        C230   1.401       .  A
C229        C234   1.410       .  A
C230        C231   1.402       .  A
C230        H239   1.084       .  S
C231        C232   1.421       .  A
C231        S235   1.805       .  S
C232        C233   1.406       .  A
C233        C234   1.399       .  A
C233        H240   1.079       .  S
C234        S236   1.804       .  S
S235        H238   1.398       .  S
S236        H237   1.406       .  S
C241        C242   1.409       .  A
C241        C246   1.410       .  A
C242        C243   1.408       .  A
C242        H251   1.084       .  S
C243        C244   1.418       .  A
C243        S247   1.801       .  S
C244        C245   1.411       .  A
C245        C246   1.386       .  A
C245        H252   1.075       .  S
C246        S248   1.809       .  S
S247        H250   1.407       .  S
S248        H249   1.401       .  S
C253        C254   1.407       .  A
C253        C258   1.419       .  A
C254        C255   1.403       .  A
C254        H263   1.084       .  S
C255        C256   1.412       .  A
C255        S259   1.804       .  S
C256        C257   1.400       .  A
C257        C258   1.403       .  A
C257        H264   1.083       .  S
C258        S260   1.805       .  S
S259       H1510   1.406       .  S
S260        H261   1.406       .  S
H262       S1507   1.406       .  S
C265        C266   1.410       .  A
C265        C270   1.415       .  A
C266        C267   1.405       .  A
C266        H275   1.083       .  S
C267        C268   1.412       .  A
C267        S271   1.805       .  S
C268        C269   1.400       .  A
C269        C270   1.400       .  A
C269        H276   1.083       .  S
C270        S272   1.802       .  S
S271        H274   1.403       .  S
S272        H273   1.406       .  S
C277        C278   1.401       .  A
C277        C282   1.417       .  A
C278        C279   1.391       .  A
C278        H287   1.083       .  S
C279        C280   1.421       .  A
C279        S283   1.801       .  S
C280        C281   1.407       .  A
C281        C282   1.404       .  A
C281        H288   1.083       .  S
C282        S284   1.796       .  S
S283        H286   1.408       .  S
S284        H285   1.399       .  S
C289        C290   1.407       .  A
C289        C294   1.417       .  A
C290        C291   1.406       .  A
C290        H299   1.083       .  S
C291        C292   1.420       .  A
C291        S295   1.799       .  S
C292        C293   1.407       .  A
C293        C294   1.390       .  A
C293        H300   1.082       .  S
C294        S296   1.802       .  S
S295        H298   1.407       .  S
S296        H297   1.395       .  S
C301        C302   1.402       .  A
C301        C306   1.415       .  A
C302        C303   1.398       .  A
C302        H311   1.084       .  S
C303        C304   1.412       .  A
C303        S307   1.804       .  S
C304        C305   1.400       .  A
C305        C306   1.402       .  A
C305        H312   1.083       .  S
C306        S308   1.808       .  S
S307        H310   1.405       .  S
S308        H309   1.406       .  S
C313        H314   1.110       .  S
C313        C319   1.543       .  S
C313        C318   1.539       .  S
C313        C317   1.541       .  S
C315        H316   1.108       .  S
C315        C321   1.539       .  S
C315        C320   1.539       .  S
C315        C322   1.536       .  S
C317        C320   1.384       .  D
C317        C577   1.502       .  S
C318        C321   1.380       .  D
C318        C613   1.489       .  S
C319        C322   1.382       .  D
C319        C565   1.501       .  S
C320        C589   1.499       .  S
C321        C601   1.502       .  S
C322        C553   1.490       .  S
C323        H324   1.110       .  S
C323        C329   1.555       .  S
C323        C328   1.540       .  S
C323        C327   1.551       .  S
C325        H326   1.110       .  S
C325        C331   1.542       .  S
C325        C330   1.540       .  S
C325        C332   1.525       .  S
C327        C330   1.388       .  D
C327        C544   1.501       .  S
C328        C331   1.377       .  D
C328        C520   1.499       .  S
C329        C332   1.374       .  D
C329        C481   1.497       .  S
C330        C529   1.510       .  S
C331        C508   1.487       .  S
C332        C496   1.484       .  S
C333        C334   1.412       .  A
C333        C338   1.408       .  A
C333        C472   1.487       .  S
C334        C335   1.413       .  A
C334        H339   1.082       .  S
C335        C336   1.401       .  A
C335        C517   1.505       .  S
C336        C337   1.397       .  A
C336        H340   1.072       .  S
C337        C338   1.399       .  A
C337        C580   1.480       .  S
C338        H341   1.084       .  S
C342        C343   1.411       .  A
C342        C347   1.409       .  A
C342        C460   1.494       .  S
C343        C344   1.410       .  A
C343        H348   1.083       .  S
C344        C345   1.401       .  A
C344        C592   1.500       .  S
C345        C346   1.398       .  A
C345        H349   1.078       .  S
C346        C347   1.404       .  A
C346        C505   1.491       .  S
C347        H350   1.083       .  S
C351        C976   1.411       .  A
C351        C356   1.403       .  A
C351        C448   1.484       .  S
C352        C975   1.412       .  A
C352        C353   1.412       .  A
C352        H357   1.081       .  S
C353        C354   1.408   1_545  A
C353        C604   1.504       .  S
C354        C979   1.397       .  A
C354        H358   1.082       .  S
C355        C978   1.397       .  A
C355        C356   1.398       .  A
C355        C493   1.481       .  S
C356        H359   1.084       .  S
C360        C985   1.401       .  A
C360        C365   1.410       .  A
C360        C436   1.482       .  S
C361        C984   1.401   1_545  A
C361        C362   1.396       .  A
C361        H366   1.084       .  S
C362        C987   1.399       .  A
C362        C616   1.473       .  S
C363        C986   1.399       .  A
C363        C364   1.407       .  A
C363        H367   1.081       .  S
C364        C365   1.417       .  A
C364        C484   1.509       .  S
C365        H368   1.082       .  S
C369       C1618   1.409       .  A
C369        C374   1.410       .  A
C369        C421   1.493       .  S
C370       C1617   1.409       .  A
C370        C371   1.403       .  A
C370        H375   1.083       .  S
C371        C372   1.402       .  A
C371        C541   1.479       .  S
C372       C1621   1.402   1_455  A
C372        H376   1.085       .  S
C373       C1620   1.402       .  A
C373        C374   1.405       .  A
C373        C568   1.482       .  S
C374        H377   1.084       .  S
C378        C379   1.412       .  A
C378       C1631   1.410       .  A
C378        C409   1.486       .  S
C379        C380   1.410       .  A
C379        H384   1.079       .  S
C380       C1629   1.404       .  A
C380        C556   1.506       .  S
C381       C1628   1.404       .  A
C381        C382   1.400   1_655  A
C381        H385   1.084       .  S
C382        C383   1.402       .  A
C382        C532   1.495       .  S
C383       C1626   1.410   1_455  A
C383        H386   1.082       .  S
O387      Cr1653   1.988   1_455  S
O387       C1019   1.259       .  A
O388       Cr405   2.009       .  S
O388        C389   1.265       .  A
C389        C469   1.476       .  S
C389        O390   1.259       .  A
O391       Cr718   2.021   1_545  S
O391       C1640   1.271       .  A
C392        C424   1.475       .  S
C392       O1639   1.271   1_455  A
C392        O393   1.261       .  A
O394        C395   1.261   1_545  A
C395        C433   1.483       .  S
C395       O1011   1.259       .  A
O396      Cr1341   2.021   1_455  S
O396        C404   1.271       .  A
O397        C398   1.260       .  A
C398        C457   1.480       .  S
C398        O399   1.266       .  A
O399       Cr406   2.008       .  S
O400      Cr1030   1.990   1_545  S
O400       C1649   1.259       .  A
C401        C412   1.488       .  S
C401       O1648   1.258       .  A
C401        O402   1.262   1_655  A
O402       Cr407   2.002       .  S
O403       Cr407   1.969       .  S
O403       C1028   1.260       .  A
C404        C445   1.470       .  S
C404       O1027   1.260       .  A
Cr405      O1635   1.988       .  S
Cr405      O1332   2.020       .  S
Cr405       O408   1.779       .  S
Cr406       O703   2.020   1_556  S
Cr406      O1024   1.990       .  S
Cr407      O1968   1.782   1_445  S
O408      Cr1967   1.781       .  S
C409       C1658   1.402       .  A
C409        C414   1.415       .  A
C410       C1657   1.402   1_455  A
C410        C411   1.396       .  A
C410        H419   1.085       .  S
C411        C412   1.416   1_455  A
C411        S415   1.801       .  S
C412       C1661   1.408       .  A
C413       C1660   1.408       .  A
C413        C414   1.407       .  A
C413        H420   1.084       .  S
C414        S416   1.803       .  S
S415        H418   1.407       .  S
S416        H417   1.406       .  S
C421        C422   1.409       .  A
C421       C1674   1.418       .  A
C422        C423   1.404       .  A
C422        H431   1.084       .  S
C423       C1672   1.410       .  A
C423        S427   1.803       .  S
C424       C1671   1.411   1_455  A
C424        C425   1.400       .  A
C425        C426   1.399       .  A
C425        H432   1.083       .  S
C426       C1669   1.418       .  A
C426        S428   1.804       .  S
S427        H430   1.406       .  S
S428        H429   1.407       .  S
C433       C1058   1.406   1_565  A
C433        C438   1.414       .  A
C434       C1057   1.406       .  A
C434        C435   1.401       .  A
C434        H443   1.084       .  S
C435        C436   1.412       .  A
C435        S439   1.804       .  S
C436       C1061   1.404       .  A
C437       C1060   1.404       .  A
C437        C438   1.402       .  A
C437        H444   1.084       .  S
C438        S440   1.802       .  S
S439        H442   1.406       .  S
S440        H441   1.407       .  S
C445       C1070   1.401       .  A
C445        C450   1.410       .  A
C446       C1069   1.401       .  A
C446        C447   1.399       .  A
C446        H455   1.084       .  S
C447       C1072   1.414       .  A
C447        S451   1.803       .  S
C448       C1071   1.414       .  A
C448        C449   1.408       .  A
C449        C450   1.402       .  A
C449        H456   1.084       .  S
C450        S452   1.803       .  S
S451        H454   1.406       .  S
S452        H453   1.406       .  S
C457        C458   1.403       .  A
C457        C462   1.413       .  A
C458        C459   1.403       .  A
C458        H467   1.084       .  S
C459        C460   1.419       .  A
C459        S463   1.804       .  S
C460        C461   1.406       .  A
C461        C462   1.400       .  A
C461        H468   1.084       .  S
C462        S464   1.802       .  S
S463        H466   1.407       .  S
S464        H465   1.404       .  S
C469        C470   1.401       .  A
C469        C474   1.413       .  A
C470        C471   1.401       .  A
C470        H479   1.081       .  S
C471        C472   1.415       .  A
C471        S475   1.804       .  S
C472        C473   1.405       .  A
C473        C474   1.403       .  A
C473        H480   1.084       .  S
C474        S476   1.803       .  S
S475        H478   1.407       .  S
S476        H477   1.402       .  S
C481        C482   1.398       .  A
C481        C486   1.418       .  A
C482        C483   1.400       .  A
C482        H491   1.081       .  S
C483        C484   1.423       .  A
C483        S487   1.805       .  S
C484        C485   1.408       .  A
C485        C486   1.403       .  A
C485        H492   1.081       .  S
C486        S488   1.799       .  S
S487       H1114   1.407       .  S
S488        H489   1.389       .  S
H490       S1111   1.407       .  S
C493        C494   1.404       .  A
C493        C498   1.413       .  A
C494        C495   1.397       .  A
C494        H503   1.084       .  S
C495        C496   1.410       .  A
C495        S499   1.796       .  S
C496        C497   1.402       .  A
C497        C498   1.397       .  A
C497        H504   1.080       .  S
C498        S500   1.804       .  S
S499        H502   1.404       .  S
S500        H501   1.406       .  S
C505        C506   1.407       .  A
C505        C510   1.415       .  A
C506        C507   1.401       .  A
C506        H515   1.084       .  S
C507        C508   1.414       .  A
C507        S511   1.803       .  S
C508        C509   1.402       .  A
C509        C510   1.398       .  A
C509        H516   1.080       .  S
C510        S512   1.805       .  S
S511        H514   1.398       .  S
S512        H513   1.407       .  S
C517        C518   1.405       .  A
C517        C522   1.425       .  A
C518        C519   1.400       .  A
C518        H527   1.082       .  S
C519        C520   1.413       .  A
C519        S523   1.787       .  S
C520        C521   1.400       .  A
C521        C522   1.403       .  A
C521        H528   1.080       .  S
C522        S524   1.806       .  S
S523        H526   1.405       .  S
S524        H525   1.407       .  S
C529        C530   1.416       .  A
C529        C534   1.416       .  A
C530        C531   1.408       .  A
C530        H539   1.078       .  S
C531        C532   1.411       .  A
C531        S535   1.802       .  S
C532        C533   1.403       .  A
C533        C534   1.390       .  A
C533        H540   1.076       .  S
C534        S536   1.805       .  S
S535        H538   1.406       .  S
S536        H537   1.407       .  S
C541        C542   1.401       .  A
C541        C546   1.410       .  A
C542        C543   1.402       .  A
C542        H551   1.084       .  S
C543        C544   1.421       .  A
C543        S547   1.805       .  S
C544        C545   1.406       .  A
C545        C546   1.399       .  A
C545        H552   1.079       .  S
C546        S548   1.804       .  S
S547        H550   1.398       .  S
S548        H549   1.406       .  S
C553        C554   1.409       .  A
C553        C558   1.410       .  A
C554        C555   1.408       .  A
C554        H563   1.084       .  S
C555        C556   1.418       .  A
C555        S559   1.801       .  S
C556        C557   1.411       .  A
C557        C558   1.386       .  A
C557        H564   1.075       .  S
C558        S560   1.809       .  S
S559        H562   1.407       .  S
S560        H561   1.401       .  S
C565        C566   1.407       .  A
C565        C570   1.418       .  A
C566        C567   1.403       .  A
C566        H575   1.084       .  S
C567        C568   1.412       .  A
C567        S571   1.804       .  S
C568        C569   1.400       .  A
C569        C570   1.403       .  A
C569        H576   1.083       .  S
C570        S572   1.805       .  S
S571       H1822   1.406       .  S
S572        H573   1.406       .  S
H574       S1819   1.406       .  S
C577        C578   1.410       .  A
C577        C582   1.415       .  A
C578        C579   1.405       .  A
C578        H587   1.083       .  S
C579        C580   1.411       .  A
C579        S583   1.804       .  S
C580        C581   1.400       .  A
C581        C582   1.401       .  A
C581        H588   1.083       .  S
C582        S584   1.803       .  S
S583        H586   1.404       .  S
S584        H585   1.406       .  S
C589        C590   1.400       .  A
C589        C594   1.417       .  A
C590        C591   1.391       .  A
C590        H599   1.083       .  S
C591        C592   1.421       .  A
C591        S595   1.801       .  S
C592        C593   1.408       .  A
C593        C594   1.405       .  A
C593        H600   1.083       .  S
C594        S596   1.797       .  S
S595        H598   1.408       .  S
S596        H597   1.399       .  S
C601        C602   1.407       .  A
C601        C606   1.416       .  A
C602        C603   1.407       .  A
C602        H611   1.083       .  S
C603        C604   1.420       .  A
C603        S607   1.799       .  S
C604        C605   1.408       .  A
C605        C606   1.390       .  A
C605        H612   1.082       .  S
C606        S608   1.802       .  S
S607        H610   1.407       .  S
S608        H609   1.395       .  S
C613        C614   1.402       .  A
C613        C618   1.415       .  A
C614        C615   1.398       .  A
C614        H623   1.084       .  S
C615        C616   1.412       .  A
C615        S619   1.804       .  S
C616        C617   1.400       .  A
C617        C618   1.403       .  A
C617        H624   1.083       .  S
C618        S620   1.807       .  S
S619        H622   1.405       .  S
S620        H621   1.407       .  S
C625        H626   1.110       .  S
C625        C631   1.543       .  S
C625        C630   1.539       .  S
C625        C629   1.541       .  S
C627        H628   1.108       .  S
C627        C633   1.538       .  S
C627        C632   1.540       .  S
C627        C634   1.536       .  S
C629        C632   1.384       .  D
C629        C889   1.501       .  S
C630        C633   1.379       .  D
C630        C925   1.489       .  S
C631        C634   1.382       .  D
C631        C877   1.501       .  S
C632        C901   1.500       .  S
C633        C913   1.501       .  S
C634        C865   1.490       .  S
C635        H636   1.110       .  S
C635        C641   1.555       .  S
C635        C640   1.540       .  S
C635        C639   1.551       .  S
C637        H638   1.110       .  S
C637        C643   1.542       .  S
C637        C642   1.540       .  S
C637        C644   1.524       .  S
C639        C642   1.388       .  D
C639        C856   1.500       .  S
C640        C643   1.378       .  D
C640        C832   1.499       .  S
C641        C644   1.373       .  D
C641        C793   1.498       .  S
C642        C841   1.509       .  S
C643        C820   1.487       .  S
C644        C808   1.483       .  S
C645        C646   1.412       .  A
C645        C650   1.408       .  A
C645        C784   1.488       .  S
C646        C647   1.413       .  A
C646        H651   1.082       .  S
C647        C648   1.401       .  A
C647        C829   1.505       .  S
C648        C649   1.397       .  A
C648        H652   1.072       .  S
C649        C650   1.399       .  A
C649        C892   1.480       .  S
C650        H653   1.084       .  S
C654        C655   1.411       .  A
C654        C659   1.409       .  A
C654        C772   1.494       .  S
C655        C656   1.410       .  A
C655        H660   1.083       .  S
C656        C657   1.401       .  A
C656        C904   1.499       .  S
C657        C658   1.398       .  A
C657        H661   1.078       .  S
C658        C659   1.404       .  A
C658        C817   1.490       .  S
C659        H662   1.083       .  S
C663        C668   1.403   1_545  A
C663        C760   1.484       .  S
C664        C665   1.412       .  A
C664        H669   1.081       .  S
C665        C666   1.408       .  A
C665        C916   1.504       .  S
C666        H670   1.082       .  S
C667        C668   1.398       .  A
C667        C805   1.481       .  S
C668        H671   1.084       .  S
C672        C677   1.410       .  A
C672        C748   1.482       .  S
C673        C674   1.396       .  A
C673        H678   1.084       .  S
C674        C928   1.473       .  S
C675        C676   1.408   1_545  A
C675        H679   1.081       .  S
C676        C677   1.418       .  A
C676        C796   1.510       .  S
C677        H680   1.082       .  S
C681       C1930   1.409       .  A
C681        C686   1.409       .  A
C681        C733   1.492       .  S
C682       C1929   1.409       .  A
C682        C683   1.402       .  A
C682        H687   1.083       .  S
C683        C684   1.401       .  A
C683        C853   1.478       .  S
C684       C1933   1.401   1_455  A
C684        H688   1.085       .  S
C685       C1932   1.401       .  A
C685        C686   1.405       .  A
C685        C880   1.481       .  S
C686        H689   1.084       .  S
C690        C691   1.413       .  A
C690       C1943   1.411       .  A
C690        C721   1.487       .  S
C691        C692   1.411       .  A
C691        H696   1.079       .  S
C692       C1941   1.404       .  A
C692        C868   1.506       .  S
C693       C1940   1.403       .  A
C693        C694   1.400   1_655  A
C693        H697   1.084       .  S
C694        C695   1.402       .  A
C694        C844   1.495       .  S
C695       C1938   1.410   1_455  A
C695        H698   1.082       .  S
O699      Cr1965   1.988   1_454  S
O700       Cr717   2.009   1_554  S
O700        C701   1.264       .  A
C701        C781   1.476       .  S
C701        O702   1.259       .  A
O702      Cr1030   1.980   1_554  S
O703       C1952   1.271       .  A
C704        C736   1.473       .  S
C704       O1951   1.271   1_455  A
C704        O705   1.261       .  A
O705      Cr1031   1.970   1_554  S
O706      Cr1031   2.006   1_554  S
O706        C707   1.261       .  A
C707        C745   1.483       .  S
O708      Cr2277   2.019   1_455  S
O708        C716   1.270   1_565  A
O709      Cr1029   1.978       .  S
O709        C710   1.260       .  A
C710        C769   1.480       .  S
C710        O711   1.266       .  A
O711       Cr718   2.009       .  S
O712       C1961   1.259       .  A
C713        C724   1.490       .  S
C713       O1960   1.259       .  A
C713        O714   1.262   1_655  A
O714       Cr719   2.003       .  S
O715       Cr719   1.968       .  S
C716        C757   1.471       .  S
Cr717      O1947   1.989   1_556  S
Cr717      O2268   2.020       .  S
Cr717      O1021   1.979       .  S
Cr717       O720   1.779       .  S
Cr718      O1014   1.979       .  S
Cr718      O1032   1.779       .  S
Cr719      O1017   1.972       .  S
Cr719      O1018   2.006       .  S
Cr719      O1656   1.781   1_455  S
O720      Cr1030   1.779       .  S
O720      Cr1655   1.782   1_565  S
C721       C1970   1.402       .  A
C721        C726   1.415       .  A
C722       C1969   1.402   1_455  A
C722        C723   1.396       .  A
C722        H731   1.085       .  S
C723        C724   1.417   1_455  A
C723        S727   1.801       .  S
C724       C1973   1.408       .  A
C725       C1972   1.408       .  A
C725        C726   1.407       .  A
C725        H732   1.084       .  S
C726        S728   1.803       .  S
S727        H730   1.407       .  S
S728        H729   1.406       .  S
C733        C734   1.409       .  A
C733       C1986   1.418       .  A
C734        C735   1.404       .  A
C734        H743   1.084       .  S
C735       C1984   1.410       .  A
C735        S739   1.804       .  S
C736       C1983   1.410   1_455  A
C736        C737   1.399       .  A
C737        C738   1.398       .  A
C737        H744   1.083       .  S
C738       C1981   1.418       .  A
C738        S740   1.804       .  S
S739        H742   1.406       .  S
S740        H741   1.407       .  S
C745        C750   1.414       .  A
C746        C747   1.401       .  A
C746        H755   1.084       .  S
C747        C748   1.412   1_545  A
C747        S751   1.804       .  S
C749        C750   1.402       .  A
C749        H756   1.084       .  S
C750        S752   1.802       .  S
S751        H754   1.406   1_545  S
S752        H753   1.407       .  S
C757        C762   1.410   1_545  A
C758        C759   1.399       .  A
C758        H767   1.084       .  S
C759        S763   1.802       .  S
C760        C761   1.407   1_545  A
C761        C762   1.402       .  A
C761        H768   1.084       .  S
C762        S764   1.803       .  S
S763        H766   1.406       .  S
S764        H765   1.406       .  S
C769        C770   1.403       .  A
C769        C774   1.413       .  A
C770        C771   1.404       .  A
C770        H779   1.084       .  S
C771        C772   1.419       .  A
C771        S775   1.804       .  S
C772        C773   1.406       .  A
C773        C774   1.400       .  A
C773        H780   1.084       .  S
C774        S776   1.802       .  S
S775        H778   1.407       .  S
S776        H777   1.404       .  S
C781        C782   1.401       .  A
C781        C786   1.413       .  A
C782        C783   1.401       .  A
C782        H791   1.082       .  S
C783        C784   1.416       .  A
C783        S787   1.804       .  S
C784        C785   1.405       .  A
C785        C786   1.403       .  A
C785        H792   1.084       .  S
C786        S788   1.803       .  S
S787        H790   1.407       .  S
S788        H789   1.402       .  S
C793        C794   1.398       .  A
C793        C798   1.418       .  A
C794        C795   1.400       .  A
C794        H803   1.081       .  S
C795        C796   1.424       .  A
C795        S799   1.805       .  S
C796        C797   1.409       .  A
C797        C798   1.403       .  A
C797        H804   1.081       .  S
C798        S800   1.799       .  S
S800        H801   1.389       .  S
C805        C806   1.404       .  A
C805        C810   1.414       .  A
C806        C807   1.397       .  A
C806        H815   1.084       .  S
C807        C808   1.409       .  A
C807        S811   1.796       .  S
C808        C809   1.401       .  A
C809        C810   1.397       .  A
C809        H816   1.080       .  S
C810        S812   1.804       .  S
S811        H814   1.404       .  S
S812        H813   1.406       .  S
C817        C818   1.406       .  A
C817        C822   1.414       .  A
C818        C819   1.400       .  A
C818        H827   1.084       .  S
C819        C820   1.415       .  A
C819        S823   1.803       .  S
C820        C821   1.403       .  A
C821        C822   1.399       .  A
C821        H828   1.080       .  S
C822        S824   1.805       .  S
S823        H826   1.398       .  S
S824        H825   1.407       .  S
C829        C830   1.405       .  A
C829        C834   1.425       .  A
C830        C831   1.400       .  A
C830        H839   1.082       .  S
C831        C832   1.413       .  A
C831        S835   1.788       .  S
C832        C833   1.401       .  A
C833        C834   1.403       .  A
C833        H840   1.080       .  S
C834        S836   1.806       .  S
S835        H838   1.405       .  S
S836        H837   1.407       .  S
C841        C842   1.416       .  A
C841        C846   1.415       .  A
C842        C843   1.408       .  A
C842        H851   1.078       .  S
C843        C844   1.411       .  A
C843        S847   1.802       .  S
C844        C845   1.403       .  A
C845        C846   1.389       .  A
C845        H852   1.076       .  S
C846        S848   1.804       .  S
S847        H850   1.406       .  S
S848        H849   1.407       .  S
C853        C854   1.401       .  A
C853        C858   1.410       .  A
C854        C855   1.401       .  A
C854        H863   1.084       .  S
C855        C856   1.421       .  A
C855        S859   1.805       .  S
C856        C857   1.406       .  A
C857        C858   1.399       .  A
C857        H864   1.079       .  S
C858        S860   1.804       .  S
S859        H862   1.398       .  S
S860        H861   1.406       .  S
C865        C866   1.410       .  A
C865        C870   1.410       .  A
C866        C867   1.408       .  A
C866        H875   1.084       .  S
C867        C868   1.418       .  A
C867        S871   1.801       .  S
C868        C869   1.411       .  A
C869        C870   1.386       .  A
C869        H876   1.074       .  S
C870        S872   1.809       .  S
S871        H874   1.407       .  S
S872        H873   1.401       .  S
C877        C878   1.408       .  A
C877        C882   1.418       .  A
C878        C879   1.403       .  A
C878        H887   1.084       .  S
C879        C880   1.411       .  A
C879        S883   1.804       .  S
C880        C881   1.400       .  A
C881        C882   1.403       .  A
C881        H888   1.083       .  S
C882        S884   1.804       .  S
S883       H2134   1.406       .  S
S884        H885   1.406       .  S
H886       S2131   1.406       .  S
C889        C890   1.410       .  A
C889        C894   1.415       .  A
C890        C891   1.405       .  A
C890        H899   1.084       .  S
C891        C892   1.411       .  A
C891        S895   1.804       .  S
C892        C893   1.400       .  A
C893        C894   1.400       .  A
C893        H900   1.083       .  S
C894        S896   1.802       .  S
S895        H898   1.404       .  S
S896        H897   1.406       .  S
C901        C902   1.401       .  A
C901        C906   1.417       .  A
C902        C903   1.391       .  A
C902        H911   1.083       .  S
C903        C904   1.421       .  A
C903        S907   1.801       .  S
C904        C905   1.407       .  A
C905        C906   1.405       .  A
C905        H912   1.083       .  S
C906        S908   1.797       .  S
S907        H910   1.408       .  S
S908        H909   1.399       .  S
C913        C914   1.407       .  A
C913        C918   1.416       .  A
C914        C915   1.406       .  A
C914        H923   1.083       .  S
C915        C916   1.420       .  A
C915        S919   1.799       .  S
C916        C917   1.407       .  A
C917        C918   1.389       .  A
C917        H924   1.082       .  S
C918        S920   1.802       .  S
S919        H922   1.407       .  S
S920        H921   1.395       .  S
C925        C926   1.402       .  A
C925        C930   1.415       .  A
C926        C927   1.398       .  A
C926        H935   1.084       .  S
C927        C928   1.412       .  A
C927        S931   1.804       .  S
C928        C929   1.400       .  A
C929        C930   1.402       .  A
C929        H936   1.083       .  S
C930        S932   1.808       .  S
S931        H934   1.405       .  S
S932        H933   1.406       .  S
C937        H938   1.110       .  S
C937        C943   1.543       .  S
C937        C942   1.539       .  S
C937        C941   1.540       .  S
C939        H940   1.107       .  S
C939        C945   1.538       .  S
C939        C944   1.539       .  S
C939        C946   1.536       .  S
C941        C944   1.384       .  D
C941       C1201   1.500       .  S
C942        C945   1.379       .  D
C942       C1237   1.489       .  S
C943        C946   1.382       .  D
C943       C1189   1.502       .  S
C944       C1213   1.500       .  S
C945       C1225   1.501       .  S
C946       C1177   1.490       .  S
C947        H948   1.110       .  S
C947        C953   1.555       .  S
C947        C952   1.540       .  S
C947        C951   1.551       .  S
C949        H950   1.110       .  S
C949        C955   1.543       .  S
C949        C954   1.540       .  S
C949        C956   1.525       .  S
C951        C954   1.388       .  D
C951       C1168   1.500       .  S
C952        C955   1.378       .  D
C952       C1144   1.499       .  S
C953        C956   1.374       .  D
C953       C1105   1.498       .  S
C954       C1153   1.510       .  S
C955       C1132   1.488       .  S
C956       C1120   1.484       .  S
C957        C958   1.412       .  A
C957        C962   1.408       .  A
C957       C1096   1.489       .  S
C958        C959   1.413       .  A
C958        H963   1.082       .  S
C959        C960   1.401       .  A
C959       C1141   1.505       .  S
C960        C961   1.397       .  A
C960        H964   1.072       .  S
C961        C962   1.398       .  A
C961       C1204   1.479       .  S
C962        H965   1.084       .  S
C966        C967   1.411       .  A
C966        C971   1.410       .  A
C966       C1084   1.495       .  S
C967        C968   1.410       .  A
C967        H972   1.083       .  S
C968        C969   1.401       .  A
C968       C1216   1.499       .  S
C969        C970   1.398       .  A
C969        H973   1.078       .  S
C970        C971   1.405       .  A
C970       C1129   1.491       .  S
C971        H974   1.082       .  S
C975        C980   1.403   1_545  A
C975       C1072   1.485       .  S
C976        C977   1.412       .  A
C976        H981   1.081       .  S
C977        C978   1.409       .  A
C977       C1228   1.504       .  S
C978        H982   1.082       .  S
C979        C980   1.398       .  A
C979       C1117   1.481       .  S
C980        H983   1.084       .  S
C984        C989   1.410       .  A
C984       C1060   1.482       .  S
C985        C986   1.395       .  A
C985        H990   1.084       .  S
C986       C1240   1.473       .  S
C987        C988   1.408   1_545  A
C987        H991   1.081       .  S
C988        C989   1.418       .  A
C988       C1108   1.510       .  S
C989        H992   1.082       .  S
C993       C2242   1.409       .  A
C993        C998   1.410       .  A
C993       C1045   1.493       .  S
C994       C2241   1.409       .  A
C994        C995   1.402       .  A
C994        H999   1.083       .  S
C995        C996   1.402       .  A
C995       C1165   1.479       .  S
C996       C2245   1.402   1_455  A
C996       H1000   1.085       .  S
C997       C2244   1.402       .  A
C997        C998   1.405       .  A
C997       C1192   1.482       .  S
C998       H1001   1.084       .  S
C1002      C1003   1.412       .  A
C1002      C2255   1.410       .  A
C1002      C1033   1.486       .  S
C1003      C1004   1.411       .  A
C1003      H1008   1.079       .  S
C1004      C2253   1.404       .  A
C1004      C1180   1.505       .  S
C1005      C2252   1.404       .  A
C1005      C1006   1.400   1_655  A
C1005      H1009   1.084       .  S
C1006      C1007   1.403       .  A
C1006      C1156   1.496       .  S
C1007      C2250   1.411   1_455  A
C1007      H1010   1.082       .  S
O1011     Cr2277   1.988   1_455  S
O1012     Cr1029   2.008       .  S
O1012      C1013   1.264       .  A
C1013      C1093   1.476       .  S
C1013      O1014   1.259       .  A
O1015      C2264   1.271       .  A
C1016      C1048   1.474       .  S
C1016      O2263   1.271   1_455  A
C1016      O1017   1.261       .  A
O1018      C1019   1.262       .  A
C1019      C1057   1.483       .  S
O1020     Cr1965   2.021   1_455  S
O1020      C1028   1.270   1_565  A
O1021      C1022   1.260       .  A
C1022      C1081   1.481       .  S
C1022      O1023   1.267       .  A
O1023     Cr1030   2.009       .  S
O1024      C2273   1.259       .  A
C1025      C1036   1.489       .  S
C1025      O2272   1.259       .  A
C1025      O1026   1.261   1_655  A
O1026     Cr1031   2.003       .  S
O1027     Cr1031   1.968       .  S
C1028      C1069   1.471       .  S
Cr1029     O2259   1.988       .  S
Cr1029     O1956   2.020       .  S
Cr1029     O1032   1.778       .  S
Cr1031     O1344   1.781   1_455  S
O1032     Cr1343   1.781   1_565  S
C1033      C2282   1.402       .  A
C1033      C1038   1.414       .  A
C1034      C2281   1.402   1_455  A
C1034      C1035   1.396       .  A
C1034      H1043   1.085       .  S
C1035      C1036   1.417   1_455  A
C1035      S1039   1.802       .  S
C1036      C2285   1.408       .  A
C1037      C2284   1.408       .  A
C1037      C1038   1.407       .  A
C1037      H1044   1.084       .  S
C1038      S1040   1.803       .  S
S1039      H1042   1.407       .  S
S1040      H1041   1.406       .  S
C1045      C1046   1.409       .  A
C1045      C2298   1.418       .  A
C1046      C1047   1.404       .  A
C1046      H1055   1.084       .  S
C1047      C2296   1.410       .  A
C1047      S1051   1.803       .  S
C1048      C2295   1.410   1_455  A
C1048      C1049   1.400       .  A
C1049      C1050   1.398       .  A
C1049      H1056   1.083       .  S
C1050      C2293   1.418       .  A
C1050      S1052   1.804       .  S
S1051      H1054   1.406       .  S
S1052      H1053   1.407       .  S
C1057      C1062   1.414       .  A
C1058      C1059   1.401       .  A
C1058      H1067   1.084       .  S
C1059      C1060   1.412   1_545  A
C1059      S1063   1.804       .  S
C1061      C1062   1.402       .  A
C1061      H1068   1.084       .  S
C1062      S1064   1.802       .  S
S1063      H1066   1.406       .  S
S1064      H1065   1.407       .  S
C1069      C1074   1.410   1_545  A
C1070      C1071   1.398       .  A
C1070      H1079   1.084       .  S
C1071      S1075   1.803       .  S
C1072      C1073   1.407   1_545  A
C1073      C1074   1.402       .  A
C1073      H1080   1.084       .  S
C1074      S1076   1.803       .  S
S1075      H1078   1.406       .  S
S1076      H1077   1.406       .  S
C1081      C1082   1.403       .  A
C1081      C1086   1.414       .  A
C1082      C1083   1.404       .  A
C1082      H1091   1.084       .  S
C1083      C1084   1.419       .  A
C1083      S1087   1.804       .  S
C1084      C1085   1.406       .  A
C1085      C1086   1.401       .  A
C1085      H1092   1.084       .  S
C1086      S1088   1.803       .  S
S1087      H1090   1.407       .  S
S1088      H1089   1.403       .  S
C1093      C1094   1.400       .  A
C1093      C1098   1.412       .  A
C1094      C1095   1.401       .  A
C1094      H1103   1.082       .  S
C1095      C1096   1.416       .  A
C1095      S1099   1.804       .  S
C1096      C1097   1.405       .  A
C1097      C1098   1.402       .  A
C1097      H1104   1.084       .  S
C1098      S1100   1.802       .  S
S1099      H1102   1.407       .  S
S1100      H1101   1.403       .  S
C1105      C1106   1.399       .  A
C1105      C1110   1.418       .  A
C1106      C1107   1.401       .  A
C1106      H1115   1.081       .  S
C1107      C1108   1.424       .  A
C1107      S1111   1.805       .  S
C1108      C1109   1.409       .  A
C1109      C1110   1.403       .  A
C1109      H1116   1.081       .  S
C1110      S1112   1.799       .  S
S1112      H1113   1.389       .  S
C1117      C1118   1.404       .  A
C1117      C1122   1.413       .  A
C1118      C1119   1.397       .  A
C1118      H1127   1.084       .  S
C1119      C1120   1.410       .  A
C1119      S1123   1.795       .  S
C1120      C1121   1.402       .  A
C1121      C1122   1.397       .  A
C1121      H1128   1.080       .  S
C1122      S1124   1.804       .  S
S1123      H1126   1.404       .  S
S1124      H1125   1.406       .  S
C1129      C1130   1.407       .  A
C1129      C1134   1.415       .  A
C1130      C1131   1.401       .  A
C1130      H1139   1.084       .  S
C1131      C1132   1.415       .  A
C1131      S1135   1.803       .  S
C1132      C1133   1.402       .  A
C1133      C1134   1.399       .  A
C1133      H1140   1.080       .  S
C1134      S1136   1.805       .  S
S1135      H1138   1.398       .  S
S1136      H1137   1.407       .  S
C1141      C1142   1.405       .  A
C1141      C1146   1.425       .  A
C1142      C1143   1.400       .  A
C1142      H1151   1.082       .  S
C1143      C1144   1.413       .  A
C1143      S1147   1.788       .  S
C1144      C1145   1.400       .  A
C1145      C1146   1.403       .  A
C1145      H1152   1.080       .  S
C1146      S1148   1.806       .  S
S1147      H1150   1.405       .  S
S1148      H1149   1.407       .  S
C1153      C1154   1.415       .  A
C1153      C1158   1.415       .  A
C1154      C1155   1.408       .  A
C1154      H1163   1.078       .  S
C1155      C1156   1.411       .  A
C1155      S1159   1.802       .  S
C1156      C1157   1.403       .  A
C1157      C1158   1.390       .  A
C1157      H1164   1.075       .  S
C1158      S1160   1.805       .  S
S1159      H1162   1.406       .  S
S1160      H1161   1.407       .  S
C1165      C1166   1.401       .  A
C1165      C1170   1.410       .  A
C1166      C1167   1.402       .  A
C1166      H1175   1.084       .  S
C1167      C1168   1.421       .  A
C1167      S1171   1.806       .  S
C1168      C1169   1.406       .  A
C1169      C1170   1.400       .  A
C1169      H1176   1.079       .  S
C1170      S1172   1.804       .  S
S1171      H1174   1.398       .  S
S1172      H1173   1.406       .  S
C1177      C1178   1.409       .  A
C1177      C1182   1.410       .  A
C1178      C1179   1.408       .  A
C1178      H1187   1.084       .  S
C1179      C1180   1.418       .  A
C1179      S1183   1.801       .  S
C1180      C1181   1.411       .  A
C1181      C1182   1.386       .  A
C1181      H1188   1.075       .  S
C1182      S1184   1.809       .  S
S1183      H1186   1.407       .  S
S1184      H1185   1.401       .  S
C1189      C1190   1.407       .  A
C1189      C1194   1.419       .  A
C1190      C1191   1.403       .  A
C1190      H1199   1.084       .  S
C1191      C1192   1.412       .  A
C1191      S1195   1.804       .  S
C1192      C1193   1.400       .  A
C1193      C1194   1.404       .  A
C1193      H1200   1.083       .  S
C1194      S1196   1.805       .  S
S1195      H2446   1.406       .  S
S1196      H1197   1.406       .  S
H1198      S2443   1.406       .  S
C1201      C1202   1.410       .  A
C1201      C1206   1.415       .  A
C1202      C1203   1.404       .  A
C1202      H1211   1.083       .  S
C1203      C1204   1.412       .  A
C1203      S1207   1.805       .  S
C1204      C1205   1.400       .  A
C1205      C1206   1.400       .  A
C1205      H1212   1.083       .  S
C1206      S1208   1.802       .  S
S1207      H1210   1.404       .  S
S1208      H1209   1.406       .  S
C1213      C1214   1.401       .  A
C1213      C1218   1.418       .  A
C1214      C1215   1.391       .  A
C1214      H1223   1.083       .  S
C1215      C1216   1.420       .  A
C1215      S1219   1.801       .  S
C1216      C1217   1.407       .  A
C1217      C1218   1.405       .  A
C1217      H1224   1.083       .  S
C1218      S1220   1.797       .  S
S1219      H1222   1.408       .  S
S1220      H1221   1.399       .  S
C1225      C1226   1.407       .  A
C1225      C1230   1.416       .  A
C1226      C1227   1.406       .  A
C1226      H1235   1.083       .  S
C1227      C1228   1.420       .  A
C1227      S1231   1.799       .  S
C1228      C1229   1.407       .  A
C1229      C1230   1.390       .  A
C1229      H1236   1.082       .  S
C1230      S1232   1.802       .  S
S1231      H1234   1.407       .  S
S1232      H1233   1.395       .  S
C1237      C1238   1.402       .  A
C1237      C1242   1.415       .  A
C1238      C1239   1.398       .  A
C1238      H1247   1.084       .  S
C1239      C1240   1.412       .  A
C1239      S1243   1.804       .  S
C1240      C1241   1.400       .  A
C1241      C1242   1.402       .  A
C1241      H1248   1.083       .  S
C1242      S1244   1.808       .  S
S1243      H1246   1.405       .  S
S1244      H1245   1.406       .  S
C1249      H1250   1.110       .  S
C1249      C1255   1.544       .  S
C1249      C1254   1.539       .  S
C1249      C1253   1.540       .  S
C1251      H1252   1.108       .  S
C1251      C1257   1.538       .  S
C1251      C1256   1.539       .  S
C1251      C1258   1.535       .  S
C1253      C1256   1.384       .  D
C1253      C1513   1.500       .  S
C1254      C1257   1.379       .  D
C1254      C1549   1.489       .  S
C1255      C1258   1.382       .  D
C1255      C1501   1.501       .  S
C1256      C1525   1.499       .  S
C1257      C1537   1.501       .  S
C1258      C1489   1.489       .  S
C1259      H1260   1.110       .  S
C1259      C1265   1.555       .  S
C1259      C1264   1.540       .  S
C1259      C1263   1.551       .  S
C1261      H1262   1.110       .  S
C1261      C1267   1.543       .  S
C1261      C1266   1.540       .  S
C1261      C1268   1.525       .  S
C1263      C1266   1.388       .  D
C1263      C1480   1.500       .  S
C1264      C1267   1.378       .  D
C1264      C1456   1.499       .  S
C1265      C1268   1.374       .  D
C1265      C1417   1.498       .  S
C1266      C1465   1.510       .  S
C1267      C1444   1.487       .  S
C1268      C1432   1.483       .  S
C1269      C1270   1.413       .  A
C1269      C1274   1.408       .  A
C1269      C1408   1.490       .  S
C1270      C1271   1.414       .  A
C1270      H1275   1.082       .  S
C1271      C1272   1.401       .  A
C1271      C1453   1.505       .  S
C1272      C1273   1.397       .  A
C1272      H1276   1.073       .  S
C1273      C1274   1.399       .  A
C1273      C1516   1.480       .  S
C1274      H1277   1.084       .  S
C1278      C1279   1.411       .  A
C1278      C1283   1.409       .  A
C1278      C1396   1.495       .  S
C1279      C1280   1.410       .  A
C1279      H1284   1.083       .  S
C1280      C1281   1.401       .  A
C1280      C1528   1.498       .  S
C1281      C1282   1.398       .  A
C1281      H1285   1.078       .  S
C1282      C1283   1.404       .  A
C1282      C1441   1.490       .  S
C1283      H1286   1.082       .  S
C1287      C1912   1.412       .  A
C1287      C1292   1.403       .  A
C1287      C1384   1.485       .  S
C1288      C1911   1.412       .  A
C1288      C1289   1.412       .  A
C1288      H1293   1.081       .  S
C1289      C1290   1.408   1_545  A
C1289      C1540   1.504       .  S
C1290      C1915   1.397       .  A
C1290      H1294   1.082       .  S
C1291      C1914   1.397       .  A
C1291      C1292   1.397       .  A
C1291      C1429   1.481       .  S
C1292      H1295   1.084       .  S
C1296      C1921   1.401       .  A
C1296      C1301   1.410       .  A
C1296      C1372   1.482       .  S
C1297      C1920   1.402   1_545  A
C1297      C1298   1.396       .  A
C1297      H1302   1.084       .  S
C1298      C1923   1.399       .  A
C1298      C1552   1.473       .  S
C1299      C1922   1.398       .  A
C1299      C1300   1.407       .  A
C1299      H1303   1.081       .  S
C1300      C1301   1.418       .  A
C1300      C1420   1.510       .  S
C1301      H1304   1.082       .  S
C1305      C1310   1.409   1_455  A
C1305      C1357   1.493       .  S
C1306      C1307   1.403       .  A
C1306      H1311   1.083       .  S
C1307      C1308   1.402       .  A
C1307      C1477   1.479       .  S
C1308      H1312   1.084       .  S
C1309      C1310   1.405       .  A
C1309      C1504   1.482       .  S
C1310      H1313   1.084       .  S
C1314      C1315   1.412       .  A
C1314      C1345   1.487       .  S
C1315      C1316   1.411       .  A
C1315      H1320   1.079       .  S
C1316      C1492   1.505       .  S
C1317      C1318   1.401       .  A
C1317      H1321   1.084       .  S
C1318      C1319   1.403       .  A
C1318      C1468   1.496       .  S
C1319      H1322   1.082       .  S
O1323      C1955   1.258       .  A
O1324     Cr1341   2.008   1_554  S
O1324      C1325   1.264       .  A
C1325      C1405   1.477       .  S
C1325      O1326   1.259       .  A
O1326     Cr1654   1.980   1_554  S
O1327     Cr2278   2.022   1_544  S
C1328      C1360   1.476       .  S
C1328      O1329   1.261       .  A
O1329     Cr1655   1.973   1_554  S
O1330     Cr1655   2.005   1_554  S
O1330      C1331   1.261   1_545  A
C1331      C1369   1.483       .  S
C1331      O1947   1.259       .  A
O1332      C1340   1.270       .  A
O1333     Cr1653   1.977       .  S
O1333      C1334   1.260       .  A
C1334      C1393   1.480       .  S
C1334      O1335   1.267       .  A
O1335     Cr1342   2.009       .  S
O1336     Cr1966   1.990   1_545  S
C1337      C1348   1.488       .  S
C1337      O1338   1.262       .  A
O1338     Cr1343   2.002       .  S
O1339     Cr1343   1.969       .  S
O1339      C1964   1.260       .  A
C1340      C1381   1.470       .  S
C1340      O1963   1.260       .  A
Cr1341     O1645   1.977       .  S
Cr1341     O1344   1.778       .  S
Cr1342     O1638   1.980       .  S
Cr1342     O2263   2.020       .  S
Cr1342     O1960   1.991       .  S
Cr1342     O1656   1.779       .  S
Cr1343     O1641   1.972       .  S
Cr1343     O1642   2.006       .  S
O1344     Cr1654   1.779       .  S
C1345      C1350   1.415       .  A
C1346      C1347   1.396       .  A
C1346      H1355   1.085       .  S
C1347      C1348   1.416       .  A
C1347      S1351   1.802       .  S
C1349      C1350   1.407       .  A
C1349      H1356   1.084       .  S
C1350      S1352   1.803       .  S
S1351      H1354   1.407       .  S
S1352      H1353   1.406       .  S
C1357      C1358   1.409   1_455  A
C1358      C1359   1.405       .  A
C1358      H1367   1.084       .  S
C1359      S1363   1.804       .  S
C1360      C1361   1.400       .  A
C1361      C1362   1.399       .  A
C1361      H1368   1.083       .  S
C1362      S1364   1.804       .  S
S1363      H1366   1.406       .  S
S1364      H1365   1.407       .  S
C1369      C1994   1.406   1_565  A
C1369      C1374   1.414       .  A
C1370      C1993   1.406       .  A
C1370      C1371   1.401       .  A
C1370      H1379   1.084       .  S
C1371      C1372   1.412       .  A
C1371      S1375   1.804       .  S
C1372      C1997   1.404       .  A
C1373      C1996   1.404       .  A
C1373      C1374   1.402       .  A
C1373      H1380   1.084       .  S
C1374      S1376   1.802       .  S
S1375      H1378   1.406       .  S
S1376      H1377   1.407       .  S
C1381      C2006   1.401       .  A
C1381      C1386   1.409       .  A
C1382      C2005   1.401       .  A
C1382      C1383   1.399       .  A
C1382      H1391   1.084       .  S
C1383      C2008   1.414       .  A
C1383      S1387   1.802       .  S
C1384      C2007   1.414       .  A
C1384      C1385   1.408       .  A
C1385      C1386   1.401       .  A
C1385      H1392   1.084       .  S
C1386      S1388   1.803       .  S
S1387      H1390   1.406       .  S
S1388      H1389   1.406       .  S
C1393      C1394   1.403       .  A
C1393      C1398   1.414       .  A
C1394      C1395   1.403       .  A
C1394      H1403   1.084       .  S
C1395      C1396   1.419       .  A
C1395      S1399   1.804       .  S
C1396      C1397   1.406       .  A
C1397      C1398   1.400       .  A
C1397      H1404   1.084       .  S
C1398      S1400   1.803       .  S
S1399      H1402   1.407       .  S
S1400      H1401   1.403       .  S
C1405      C1406   1.400       .  A
C1405      C1410   1.412       .  A
C1406      C1407   1.402       .  A
C1406      H1415   1.081       .  S
C1407      C1408   1.417       .  A
C1407      S1411   1.804       .  S
C1408      C1409   1.406       .  A
C1409      C1410   1.403       .  A
C1409      H1416   1.084       .  S
C1410      S1412   1.803       .  S
S1411      H1414   1.407       .  S
S1412      H1413   1.403       .  S
C1417      C1418   1.398       .  A
C1417      C1422   1.418       .  A
C1418      C1419   1.400       .  A
C1418      H1427   1.081       .  S
C1419      C1420   1.424       .  A
C1419      S1423   1.805       .  S
C1420      C1421   1.408       .  A
C1421      C1422   1.403       .  A
C1421      H1428   1.081       .  S
C1422      S1424   1.798       .  S
S1423      H2050   1.407       .  S
S1424      H1425   1.388       .  S
H1426      S2047   1.407       .  S
C1429      C1430   1.404       .  A
C1429      C1434   1.413       .  A
C1430      C1431   1.397       .  A
C1430      H1439   1.084       .  S
C1431      C1432   1.409       .  A
C1431      S1435   1.796       .  S
C1432      C1433   1.402       .  A
C1433      C1434   1.397       .  A
C1433      H1440   1.080       .  S
C1434      S1436   1.804       .  S
S1435      H1438   1.404       .  S
S1436      H1437   1.406       .  S
C1441      C1442   1.407       .  A
C1441      C1446   1.415       .  A
C1442      C1443   1.401       .  A
C1442      H1451   1.084       .  S
C1443      C1444   1.415       .  A
C1443      S1447   1.803       .  S
C1444      C1445   1.402       .  A
C1445      C1446   1.398       .  A
C1445      H1452   1.080       .  S
C1446      S1448   1.805       .  S
S1447      H1450   1.398       .  S
S1448      H1449   1.407       .  S
C1453      C1454   1.405       .  A
C1453      C1458   1.425       .  A
C1454      C1455   1.400       .  A
C1454      H1463   1.082       .  S
C1455      C1456   1.413       .  A
C1455      S1459   1.787       .  S
C1456      C1457   1.400       .  A
C1457      C1458   1.403       .  A
C1457      H1464   1.080       .  S
C1458      S1460   1.806       .  S
S1459      H1462   1.405       .  S
S1460      H1461   1.407       .  S
C1465      C1466   1.416       .  A
C1465      C1470   1.415       .  A
C1466      C1467   1.409       .  A
C1466      H1475   1.078       .  S
C1467      C1468   1.411       .  A
C1467      S1471   1.802       .  S
C1468      C1469   1.403       .  A
C1469      C1470   1.390       .  A
C1469      H1476   1.076       .  S
C1470      S1472   1.803       .  S
S1471      H1474   1.406       .  S
S1472      H1473   1.407       .  S
C1477      C1478   1.401       .  A
C1477      C1482   1.410       .  A
C1478      C1479   1.402       .  A
C1478      H1487   1.084       .  S
C1479      C1480   1.421       .  A
C1479      S1483   1.805       .  S
C1480      C1481   1.406       .  A
C1481      C1482   1.399       .  A
C1481      H1488   1.079       .  S
C1482      S1484   1.804       .  S
S1483      H1486   1.398       .  S
S1484      H1485   1.405       .  S
C1489      C1490   1.409       .  A
C1489      C1494   1.410       .  A
C1490      C1491   1.407       .  A
C1490      H1499   1.084       .  S
C1491      C1492   1.418       .  A
C1491      S1495   1.801       .  S
C1492      C1493   1.411       .  A
C1493      C1494   1.386       .  A
C1493      H1500   1.075       .  S
C1494      S1496   1.809       .  S
S1495      H1498   1.407       .  S
S1496      H1497   1.401       .  S
C1501      C1502   1.407       .  A
C1501      C1506   1.419       .  A
C1502      C1503   1.403       .  A
C1502      H1511   1.084       .  S
C1503      C1504   1.412       .  A
C1503      S1507   1.804       .  S
C1504      C1505   1.400       .  A
C1505      C1506   1.403       .  A
C1505      H1512   1.083       .  S
C1506      S1508   1.805       .  S
S1508      H1509   1.406       .  S
C1513      C1514   1.409       .  A
C1513      C1518   1.415       .  A
C1514      C1515   1.405       .  A
C1514      H1523   1.083       .  S
C1515      C1516   1.412       .  A
C1515      S1519   1.805       .  S
C1516      C1517   1.400       .  A
C1517      C1518   1.400       .  A
C1517      H1524   1.083       .  S
C1518      S1520   1.802       .  S
S1519      H1522   1.404       .  S
S1520      H1521   1.406       .  S
C1525      C1526   1.401       .  A
C1525      C1530   1.417       .  A
C1526      C1527   1.391       .  A
C1526      H1535   1.083       .  S
C1527      C1528   1.421       .  A
C1527      S1531   1.802       .  S
C1528      C1529   1.407       .  A
C1529      C1530   1.404       .  A
C1529      H1536   1.083       .  S
C1530      S1532   1.797       .  S
S1531      H1534   1.408       .  S
S1532      H1533   1.399       .  S
C1537      C1538   1.407       .  A
C1537      C1542   1.416       .  A
C1538      C1539   1.406       .  A
C1538      H1547   1.083       .  S
C1539      C1540   1.420       .  A
C1539      S1543   1.799       .  S
C1540      C1541   1.407       .  A
C1541      C1542   1.390       .  A
C1541      H1548   1.082       .  S
C1542      S1544   1.802       .  S
S1543      H1546   1.407       .  S
S1544      H1545   1.395       .  S
C1549      C1550   1.402       .  A
C1549      C1554   1.415       .  A
C1550      C1551   1.398       .  A
C1550      H1559   1.084       .  S
C1551      C1552   1.412       .  A
C1551      S1555   1.804       .  S
C1552      C1553   1.400       .  A
C1553      C1554   1.402       .  A
C1553      H1560   1.083       .  S
C1554      S1556   1.808       .  S
S1555      H1558   1.405       .  S
S1556      H1557   1.406       .  S
C1561      H1562   1.110       .  S
C1561      C1567   1.543       .  S
C1561      C1566   1.539       .  S
C1561      C1565   1.541       .  S
C1563      H1564   1.108       .  S
C1563      C1569   1.538       .  S
C1563      C1568   1.539       .  S
C1563      C1570   1.536       .  S
C1565      C1568   1.384       .  D
C1565      C1825   1.502       .  S
C1566      C1569   1.379       .  D
C1566      C1861   1.488       .  S
C1567      C1570   1.382       .  D
C1567      C1813   1.501       .  S
C1568      C1837   1.500       .  S
C1569      C1849   1.501       .  S
C1570      C1801   1.490       .  S
C1571      H1572   1.110       .  S
C1571      C1577   1.555       .  S
C1571      C1576   1.540       .  S
C1571      C1575   1.551       .  S
C1573      H1574   1.110       .  S
C1573      C1579   1.542       .  S
C1573      C1578   1.540       .  S
C1573      C1580   1.524       .  S
C1575      C1578   1.388       .  D
C1575      C1792   1.501       .  S
C1576      C1579   1.378       .  D
C1576      C1768   1.499       .  S
C1577      C1580   1.374       .  D
C1577      C1729   1.498       .  S
C1578      C1777   1.510       .  S
C1579      C1756   1.486       .  S
C1580      C1744   1.483       .  S
C1581      C1582   1.412       .  A
C1581      C1586   1.408       .  A
C1581      C1720   1.487       .  S
C1582      C1583   1.414       .  A
C1582      H1587   1.082       .  S
C1583      C1584   1.401       .  A
C1583      C1765   1.506       .  S
C1584      C1585   1.397       .  A
C1584      H1588   1.072       .  S
C1585      C1586   1.399       .  A
C1585      C1828   1.480       .  S
C1586      H1589   1.084       .  S
C1590      C1591   1.411       .  A
C1590      C1595   1.409       .  A
C1590      C1708   1.494       .  S
C1591      C1592   1.410       .  A
C1591      H1596   1.083       .  S
C1592      C1593   1.401       .  A
C1592      C1840   1.499       .  S
C1593      C1594   1.398       .  A
C1593      H1597   1.078       .  S
C1594      C1595   1.404       .  A
C1594      C1753   1.490       .  S
C1595      H1598   1.083       .  S
C1599      C2224   1.411       .  A
C1599      C1604   1.402       .  A
C1599      C1696   1.484       .  S
C1600      C2223   1.412       .  A
C1600      C1601   1.412       .  A
C1600      H1605   1.081       .  S
C1601      C1602   1.409   1_545  A
C1601      C1852   1.504       .  S
C1602      C2227   1.397       .  A
C1602      H1606   1.082       .  S
C1603      C2226   1.397       .  A
C1603      C1604   1.398       .  A
C1603      C1741   1.481       .  S
C1604      H1607   1.084       .  S
C1608      C2233   1.402       .  A
C1608      C1613   1.410       .  A
C1608      C1684   1.482       .  S
C1609      C2232   1.401   1_545  A
C1609      C1610   1.396       .  A
C1609      H1614   1.084       .  S
C1610      C2235   1.399       .  A
C1610      C1864   1.473       .  S
C1611      C2234   1.399       .  A
C1611      C1612   1.408       .  A
C1611      H1615   1.081       .  S
C1612      C1613   1.417       .  A
C1612      C1732   1.509       .  S
C1613      H1616   1.082       .  S
C1617      C1622   1.410   1_455  A
C1617      C1669   1.493       .  S
C1618      C1619   1.402       .  A
C1618      H1623   1.083       .  S
C1619      C1620   1.402       .  A
C1619      C1789   1.479       .  S
C1620      H1624   1.084       .  S
C1621      C1622   1.405       .  A
C1621      C1816   1.482       .  S
C1622      H1625   1.084       .  S
C1626      C1627   1.412       .  A
C1626      C1657   1.486       .  S
C1627      C1628   1.410       .  A
C1627      H1632   1.079       .  S
C1628      C1804   1.505       .  S
C1629      C1630   1.401       .  A
C1629      H1633   1.084       .  S
C1630      C1631   1.403       .  A
C1630      C1780   1.496       .  S
C1631      H1634   1.082       .  S
O1635      C2267   1.259       .  A
O1636     Cr1653   2.009       .  S
O1636      C1637   1.265       .  A
C1637      C1717   1.477       .  S
C1637      O1638   1.259       .  A
O1639     Cr1966   2.022   1_545  S
C1640      C1672   1.475       .  S
C1640      O1641   1.261       .  A
O1642      C1643   1.261   1_545  A
C1643      C1681   1.482       .  S
C1643      O2259   1.259       .  A
O1644      C1652   1.270       .  A
O1645      C1646   1.260       .  A
C1646      C1705   1.480       .  S
C1646      O1647   1.266       .  A
O1647     Cr1654   2.008       .  S
O1648     Cr2278   1.989   1_545  S
C1649      C1660   1.489       .  S
C1649      O1650   1.262       .  A
O1650     Cr1655   2.002       .  S
O1651     Cr1655   1.970       .  S
O1651      C2276   1.260       .  A
C1652      C1693   1.470       .  S
C1652      O2275   1.260       .  A
Cr1653     O1656   1.779       .  S
Cr1654     O1951   2.020   1_556  S
Cr1654     O2272   1.991       .  S
C1657      C1662   1.415       .  A
C1658      C1659   1.396       .  A
C1658      H1667   1.085       .  S
C1659      C1660   1.417       .  A
C1659      S1663   1.802       .  S
C1661      C1662   1.407       .  A
C1661      H1668   1.084       .  S
C1662      S1664   1.803       .  S
S1663      H1666   1.407       .  S
S1664      H1665   1.406       .  S
C1669      C1670   1.409   1_455  A
C1670      C1671   1.404       .  A
C1670      H1679   1.084       .  S
C1671      S1675   1.804       .  S
C1672      C1673   1.400       .  A
C1673      C1674   1.399       .  A
C1673      H1680   1.083       .  S
C1674      S1676   1.804       .  S
S1675      H1678   1.406       .  S
S1676      H1677   1.407       .  S
C1681      C2306   1.406   1_565  A
C1681      C1686   1.414       .  A
C1682      C2305   1.406       .  A
C1682      C1683   1.401       .  A
C1682      H1691   1.084       .  S
C1683      C1684   1.412       .  A
C1683      S1687   1.804       .  S
C1684      C2309   1.404       .  A
C1685      C2308   1.404       .  A
C1685      C1686   1.402       .  A
C1685      H1692   1.084       .  S
C1686      S1688   1.802       .  S
S1687      H1690   1.406       .  S
S1688      H1689   1.407       .  S
C1693      C2318   1.401       .  A
C1693      C1698   1.410       .  A
C1694      C2317   1.401       .  A
C1694      C1695   1.399       .  A
C1694      H1703   1.084       .  S
C1695      C2320   1.414       .  A
C1695      S1699   1.803       .  S
C1696      C2319   1.414       .  A
C1696      C1697   1.407       .  A
C1697      C1698   1.402       .  A
C1697      H1704   1.084       .  S
C1698      S1700   1.803       .  S
S1699      H1702   1.406       .  S
S1700      H1701   1.406       .  S
C1705      C1706   1.403       .  A
C1705      C1710   1.413       .  A
C1706      C1707   1.403       .  A
C1706      H1715   1.084       .  S
C1707      C1708   1.419       .  A
C1707      S1711   1.804       .  S
C1708      C1709   1.406       .  A
C1709      C1710   1.400       .  A
C1709      H1716   1.084       .  S
C1710      S1712   1.803       .  S
S1711      H1714   1.407       .  S
S1712      H1713   1.404       .  S
C1717      C1718   1.401       .  A
C1717      C1722   1.413       .  A
C1718      C1719   1.402       .  A
C1718      H1727   1.081       .  S
C1719      C1720   1.416       .  A
C1719      S1723   1.804       .  S
C1720      C1721   1.405       .  A
C1721      C1722   1.403       .  A
C1721      H1728   1.084       .  S
C1722      S1724   1.803       .  S
S1723      H1726   1.406       .  S
S1724      H1725   1.402       .  S
C1729      C1730   1.399       .  A
C1729      C1734   1.418       .  A
C1730      C1731   1.400       .  A
C1730      H1739   1.081       .  S
C1731      C1732   1.423       .  A
C1731      S1735   1.805       .  S
C1732      C1733   1.408       .  A
C1733      C1734   1.403       .  A
C1733      H1740   1.081       .  S
C1734      S1736   1.799       .  S
S1735      H2362   1.407       .  S
S1736      H1737   1.389       .  S
H1738      S2359   1.407       .  S
C1741      C1742   1.404       .  A
C1741      C1746   1.413       .  A
C1742      C1743   1.397       .  A
C1742      H1751   1.084       .  S
C1743      C1744   1.409       .  A
C1743      S1747   1.795       .  S
C1744      C1745   1.402       .  A
C1745      C1746   1.397       .  A
C1745      H1752   1.080       .  S
C1746      S1748   1.804       .  S
S1747      H1750   1.404       .  S
S1748      H1749   1.407       .  S
C1753      C1754   1.407       .  A
C1753      C1758   1.415       .  A
C1754      C1755   1.400       .  A
C1754      H1763   1.084       .  S
C1755      C1756   1.414       .  A
C1755      S1759   1.803       .  S
C1756      C1757   1.402       .  A
C1757      C1758   1.398       .  A
C1757      H1764   1.080       .  S
C1758      S1760   1.805       .  S
S1759      H1762   1.398       .  S
S1760      H1761   1.407       .  S
C1765      C1766   1.405       .  A
C1765      C1770   1.425       .  A
C1766      C1767   1.400       .  A
C1766      H1775   1.082       .  S
C1767      C1768   1.413       .  A
C1767      S1771   1.787       .  S
C1768      C1769   1.401       .  A
C1769      C1770   1.404       .  A
C1769      H1776   1.080       .  S
C1770      S1772   1.806       .  S
S1771      H1774   1.405       .  S
S1772      H1773   1.407       .  S
C1777      C1778   1.416       .  A
C1777      C1782   1.415       .  A
C1778      C1779   1.409       .  A
C1778      H1787   1.078       .  S
C1779      C1780   1.412       .  A
C1779      S1783   1.802       .  S
C1780      C1781   1.403       .  A
C1781      C1782   1.390       .  A
C1781      H1788   1.075       .  S
C1782      S1784   1.803       .  S
S1783      H1786   1.406       .  S
S1784      H1785   1.407       .  S
C1789      C1790   1.401       .  A
C1789      C1794   1.410       .  A
C1790      C1791   1.402       .  A
C1790      H1799   1.084       .  S
C1791      C1792   1.421       .  A
C1791      S1795   1.805       .  S
C1792      C1793   1.407       .  A
C1793      C1794   1.399       .  A
C1793      H1800   1.079       .  S
C1794      S1796   1.804       .  S
S1795      H1798   1.399       .  S
S1796      H1797   1.406       .  S
C1801      C1802   1.409       .  A
C1801      C1806   1.410       .  A
C1802      C1803   1.408       .  A
C1802      H1811   1.084       .  S
C1803      C1804   1.418       .  A
C1803      S1807   1.801       .  S
C1804      C1805   1.411       .  A
C1805      C1806   1.386       .  A
C1805      H1812   1.075       .  S
C1806      S1808   1.809       .  S
S1807      H1810   1.407       .  S
S1808      H1809   1.401       .  S
C1813      C1814   1.407       .  A
C1813      C1818   1.418       .  A
C1814      C1815   1.403       .  A
C1814      H1823   1.084       .  S
C1815      C1816   1.412       .  A
C1815      S1819   1.803       .  S
C1816      C1817   1.400       .  A
C1817      C1818   1.404       .  A
C1817      H1824   1.083       .  S
C1818      S1820   1.804       .  S
S1820      H1821   1.406       .  S
C1825      C1826   1.410       .  A
C1825      C1830   1.416       .  A
C1826      C1827   1.404       .  A
C1826      H1835   1.084       .  S
C1827      C1828   1.411       .  A
C1827      S1831   1.804       .  S
C1828      C1829   1.400       .  A
C1829      C1830   1.401       .  A
C1829      H1836   1.083       .  S
C1830      S1832   1.802       .  S
S1831      H1834   1.404       .  S
S1832      H1833   1.406       .  S
C1837      C1838   1.401       .  A
C1837      C1842   1.417       .  A
C1838      C1839   1.391       .  A
C1838      H1847   1.083       .  S
C1839      C1840   1.421       .  A
C1839      S1843   1.801       .  S
C1840      C1841   1.408       .  A
C1841      C1842   1.405       .  A
C1841      H1848   1.083       .  S
C1842      S1844   1.797       .  S
S1843      H1846   1.408       .  S
S1844      H1845   1.399       .  S
C1849      C1850   1.407       .  A
C1849      C1854   1.416       .  A
C1850      C1851   1.406       .  A
C1850      H1859   1.083       .  S
C1851      C1852   1.420       .  A
C1851      S1855   1.799       .  S
C1852      C1853   1.408       .  A
C1853      C1854   1.390       .  A
C1853      H1860   1.082       .  S
C1854      S1856   1.802       .  S
S1855      H1858   1.407       .  S
S1856      H1857   1.395       .  S
C1861      C1862   1.402       .  A
C1861      C1866   1.415       .  A
C1862      C1863   1.398       .  A
C1862      H1871   1.084       .  S
C1863      C1864   1.412       .  A
C1863      S1867   1.804       .  S
C1864      C1865   1.400       .  A
C1865      C1866   1.402       .  A
C1865      H1872   1.083       .  S
C1866      S1868   1.807       .  S
S1867      H1870   1.405       .  S
S1868      H1869   1.407       .  S
C1873      H1874   1.110       .  S
C1873      C1879   1.543       .  S
C1873      C1878   1.538       .  S
C1873      C1877   1.540       .  S
C1875      H1876   1.107       .  S
C1875      C1881   1.538       .  S
C1875      C1880   1.541       .  S
C1875      C1882   1.536       .  S
C1877      C1880   1.385       .  D
C1877      C2137   1.502       .  S
C1878      C1881   1.379       .  D
C1878      C2173   1.488       .  S
C1879      C1882   1.382       .  D
C1879      C2125   1.501       .  S
C1880      C2149   1.501       .  S
C1881      C2161   1.502       .  S
C1882      C2113   1.490       .  S
C1883      H1884   1.110       .  S
C1883      C1889   1.554       .  S
C1883      C1888   1.539       .  S
C1883      C1887   1.550       .  S
C1885      H1886   1.110       .  S
C1885      C1891   1.543       .  S
C1885      C1890   1.540       .  S
C1885      C1892   1.525       .  S
C1887      C1890   1.388       .  D
C1887      C2104   1.500       .  S
C1888      C1891   1.378       .  D
C1888      C2080   1.498       .  S
C1889      C1892   1.374       .  D
C1889      C2041   1.497       .  S
C1890      C2089   1.510       .  S
C1891      C2068   1.487       .  S
C1892      C2056   1.484       .  S
C1893      C1894   1.412       .  A
C1893      C1898   1.409       .  A
C1893      C2032   1.491       .  S
C1894      C1895   1.413       .  A
C1894      H1899   1.082       .  S
C1895      C1896   1.401       .  A
C1895      C2077   1.504       .  S
C1896      C1897   1.397       .  A
C1896      H1900   1.073       .  S
C1897      C1898   1.399       .  A
C1897      C2140   1.480       .  S
C1898      H1901   1.083       .  S
C1902      C1903   1.412       .  A
C1902      C1907   1.409       .  A
C1902      C2020   1.495       .  S
C1903      C1904   1.410       .  A
C1903      H1908   1.083       .  S
C1904      C1905   1.401       .  A
C1904      C2152   1.499       .  S
C1905      C1906   1.398       .  A
C1905      H1909   1.078       .  S
C1906      C1907   1.404       .  A
C1906      C2065   1.490       .  S
C1907      H1910   1.082       .  S
C1911      C1916   1.403   1_545  A
C1911      C2008   1.485       .  S
C1912      C1913   1.412       .  A
C1912      H1917   1.081       .  S
C1913      C1914   1.409       .  A
C1913      C2164   1.504       .  S
C1914      H1918   1.082       .  S
C1915      C1916   1.398       .  A
C1915      C2053   1.481       .  S
C1916      H1919   1.084       .  S
C1920      C1925   1.409       .  A
C1920      C1996   1.482       .  S
C1921      C1922   1.395       .  A
C1921      H1926   1.084       .  S
C1922      C2176   1.472       .  S
C1923      C1924   1.407   1_545  A
C1923      H1927   1.081       .  S
C1924      C1925   1.417       .  A
C1924      C2044   1.509       .  S
C1925      H1928   1.082       .  S
C1929      C1934   1.409   1_455  A
C1929      C1981   1.492       .  S
C1930      C1931   1.402       .  A
C1930      H1935   1.083       .  S
C1931      C1932   1.402       .  A
C1931      C2101   1.478       .  S
C1932      H1936   1.085       .  S
C1933      C1934   1.405       .  A
C1933      C2128   1.481       .  S
C1934      H1937   1.084       .  S
C1938      C1939   1.413       .  A
C1938      C1969   1.487       .  S
C1939      C1940   1.411       .  A
C1939      H1944   1.079       .  S
C1940      C2116   1.506       .  S
C1941      C1942   1.401       .  A
C1941      H1945   1.084       .  S
C1942      C1943   1.403       .  A
C1942      C2092   1.497       .  S
C1943      H1946   1.082       .  S
O1948     Cr1965   2.006   1_554  S
O1948      C1949   1.264       .  A
C1949      C2029   1.476       .  S
C1949      O1950   1.259       .  A
O1950     Cr2278   1.979   1_554  S
C1952      C1984   1.473       .  S
C1952      O1953   1.261       .  A
O1953     Cr2279   1.971   1_554  S
O1954     Cr2279   2.007   1_554  S
O1954      C1955   1.261       .  A
C1955      C1993   1.483       .  S
O1956      C1964   1.270   1_565  A
O1957     Cr2277   1.978       .  S
O1957      C1958   1.260       .  A
C1958      C2017   1.481       .  S
C1958      O1959   1.267       .  A
O1959     Cr1966   2.009       .  S
C1961      C1972   1.490       .  S
C1961      O1962   1.262       .  A
O1962     Cr1967   2.002       .  S
O1963     Cr1967   1.968       .  S
C1964      C2005   1.471       .  S
Cr1965     O2269   1.979       .  S
Cr1965     O1968   1.779       .  S
Cr1966     O2262   1.980       .  S
Cr1966     O2280   1.779       .  S
Cr1967     O2265   1.972       .  S
Cr1967     O2266   2.005       .  S
O1968     Cr2278   1.780       .  S
C1969      C1974   1.415       .  A
C1970      C1971   1.396       .  A
C1970      H1979   1.085       .  S
C1971      C1972   1.417       .  A
C1971      S1975   1.801       .  S
C1973      C1974   1.407       .  A
C1973      H1980   1.084       .  S
C1974      S1976   1.803       .  S
S1975      H1978   1.407       .  S
S1976      H1977   1.406       .  S
C1981      C1982   1.409   1_455  A
C1982      C1983   1.404       .  A
C1982      H1991   1.084       .  S
C1983      S1987   1.804       .  S
C1984      C1985   1.399       .  A
C1985      C1986   1.398       .  A
C1985      H1992   1.083       .  S
C1986      S1988   1.804       .  S
S1987      H1990   1.406       .  S
S1988      H1989   1.407       .  S
C1993      C1998   1.414       .  A
C1994      C1995   1.401       .  A
C1994      H2003   1.084       .  S
C1995      C1996   1.412   1_545  A
C1995      S1999   1.804       .  S
C1997      C1998   1.402       .  A
C1997      H2004   1.084       .  S
C1998      S2000   1.802       .  S
S1999      H2002   1.406       .  S
S2000      H2001   1.407       .  S
C2005      C2010   1.410   1_545  A
C2006      C2007   1.399       .  A
C2006      H2015   1.084       .  S
C2007      S2011   1.802       .  S
C2008      C2009   1.408   1_545  A
C2009      C2010   1.402       .  A
C2009      H2016   1.084       .  S
C2010      S2012   1.803       .  S
S2011      H2014   1.407       .  S
S2012      H2013   1.406       .  S
C2017      C2018   1.403       .  A
C2017      C2022   1.414       .  A
C2018      C2019   1.404       .  A
C2018      H2027   1.084       .  S
C2019      C2020   1.419       .  A
C2019      S2023   1.804       .  S
C2020      C2021   1.406       .  A
C2021      C2022   1.400       .  A
C2021      H2028   1.084       .  S
C2022      S2024   1.803       .  S
S2023      H2026   1.407       .  S
S2024      H2025   1.404       .  S
C2029      C2030   1.400       .  A
C2029      C2034   1.412       .  A
C2030      C2031   1.401       .  A
C2030      H2039   1.082       .  S
C2031      C2032   1.417       .  A
C2031      S2035   1.804       .  S
C2032      C2033   1.406       .  A
C2033      C2034   1.402       .  A
C2033      H2040   1.084       .  S
C2034      S2036   1.802       .  S
S2035      H2038   1.407       .  S
S2036      H2037   1.404       .  S
C2041      C2042   1.398       .  A
C2041      C2046   1.418       .  A
C2042      C2043   1.400       .  A
C2042      H2051   1.081       .  S
C2043      C2044   1.424       .  A
C2043      S2047   1.805       .  S
C2044      C2045   1.408       .  A
C2045      C2046   1.403       .  A
C2045      H2052   1.081       .  S
C2046      S2048   1.799       .  S
S2048      H2049   1.389       .  S
C2053      C2054   1.404       .  A
C2053      C2058   1.413       .  A
C2054      C2055   1.397       .  A
C2054      H2063   1.084       .  S
C2055      C2056   1.410       .  A
C2055      S2059   1.795       .  S
C2056      C2057   1.402       .  A
C2057      C2058   1.398       .  A
C2057      H2064   1.080       .  S
C2058      S2060   1.804       .  S
S2059      H2062   1.404       .  S
S2060      H2061   1.406       .  S
C2065      C2066   1.406       .  A
C2065      C2070   1.415       .  A
C2066      C2067   1.400       .  A
C2066      H2075   1.084       .  S
C2067      C2068   1.415       .  A
C2067      S2071   1.803       .  S
C2068      C2069   1.402       .  A
C2069      C2070   1.399       .  A
C2069      H2076   1.080       .  S
C2070      S2072   1.804       .  S
S2071      H2074   1.398       .  S
S2072      H2073   1.407       .  S
C2077      C2078   1.405       .  A
C2077      C2082   1.424       .  A
C2078      C2079   1.399       .  A
C2078      H2087   1.082       .  S
C2079      C2080   1.412       .  A
C2079      S2083   1.788       .  S
C2080      C2081   1.401       .  A
C2081      C2082   1.403       .  A
C2081      H2088   1.080       .  S
C2082      S2084   1.806       .  S
S2083      H2086   1.405       .  S
S2084      H2085   1.407       .  S
C2089      C2090   1.416       .  A
C2089      C2094   1.415       .  A
C2090      C2091   1.409       .  A
C2090      H2099   1.078       .  S
C2091      C2092   1.412       .  A
C2091      S2095   1.802       .  S
C2092      C2093   1.403       .  A
C2093      C2094   1.390       .  A
C2093      H2100   1.075       .  S
C2094      S2096   1.805       .  S
S2095      H2098   1.406       .  S
S2096      H2097   1.407       .  S
C2101      C2102   1.401       .  A
C2101      C2106   1.410       .  A
C2102      C2103   1.402       .  A
C2102      H2111   1.084       .  S
C2103      C2104   1.421       .  A
C2103      S2107   1.806       .  S
C2104      C2105   1.406       .  A
C2105      C2106   1.399       .  A
C2105      H2112   1.079       .  S
C2106      S2108   1.804       .  S
S2107      H2110   1.398       .  S
S2108      H2109   1.406       .  S
C2113      C2114   1.409       .  A
C2113      C2118   1.410       .  A
C2114      C2115   1.408       .  A
C2114      H2123   1.084       .  S
C2115      C2116   1.418       .  A
C2115      S2119   1.801       .  S
C2116      C2117   1.411       .  A
C2117      C2118   1.387       .  A
C2117      H2124   1.075       .  S
C2118      S2120   1.809       .  S
S2119      H2122   1.407       .  S
S2120      H2121   1.402       .  S
C2125      C2126   1.407       .  A
C2125      C2130   1.418       .  A
C2126      C2127   1.403       .  A
C2126      H2135   1.084       .  S
C2127      C2128   1.412       .  A
C2127      S2131   1.804       .  S
C2128      C2129   1.400       .  A
C2129      C2130   1.403       .  A
C2129      H2136   1.083       .  S
C2130      S2132   1.804       .  S
S2132      H2133   1.406       .  S
C2137      C2138   1.410       .  A
C2137      C2142   1.417       .  A
C2138      C2139   1.404       .  A
C2138      H2147   1.084       .  S
C2139      C2140   1.411       .  A
C2139      S2143   1.804       .  S
C2140      C2141   1.399       .  A
C2141      C2142   1.400       .  A
C2141      H2148   1.083       .  S
C2142      S2144   1.802       .  S
S2143      H2146   1.405       .  S
S2144      H2145   1.406       .  S
C2149      C2150   1.401       .  A
C2149      C2154   1.418       .  A
C2150      C2151   1.391       .  A
C2150      H2159   1.083       .  S
C2151      C2152   1.420       .  A
C2151      S2155   1.801       .  S
C2152      C2153   1.407       .  A
C2153      C2154   1.405       .  A
C2153      H2160   1.083       .  S
C2154      S2156   1.796       .  S
S2155      H2158   1.408       .  S
S2156      H2157   1.399       .  S
C2161      C2162   1.407       .  A
C2161      C2166   1.416       .  A
C2162      C2163   1.407       .  A
C2162      H2171   1.083       .  S
C2163      C2164   1.420       .  A
C2163      S2167   1.799       .  S
C2164      C2165   1.407       .  A
C2165      C2166   1.390       .  A
C2165      H2172   1.082       .  S
C2166      S2168   1.802       .  S
S2167      H2170   1.407       .  S
S2168      H2169   1.395       .  S
C2173      C2174   1.402       .  A
C2173      C2178   1.415       .  A
C2174      C2175   1.398       .  A
C2174      H2183   1.084       .  S
C2175      C2176   1.412       .  A
C2175      S2179   1.804       .  S
C2176      C2177   1.399       .  A
C2177      C2178   1.402       .  A
C2177      H2184   1.083       .  S
C2178      S2180   1.808       .  S
S2179      H2182   1.405       .  S
S2180      H2181   1.406       .  S
C2185      H2186   1.110       .  S
C2185      C2191   1.543       .  S
C2185      C2190   1.539       .  S
C2185      C2189   1.541       .  S
C2187      H2188   1.108       .  S
C2187      C2193   1.538       .  S
C2187      C2192   1.539       .  S
C2187      C2194   1.536       .  S
C2189      C2192   1.384       .  D
C2189      C2449   1.500       .  S
C2190      C2193   1.379       .  D
C2190      C2485   1.489       .  S
C2191      C2194   1.382       .  D
C2191      C2437   1.501       .  S
C2192      C2461   1.499       .  S
C2193      C2473   1.501       .  S
C2194      C2425   1.490       .  S
C2195      H2196   1.110       .  S
C2195      C2201   1.555       .  S
C2195      C2200   1.541       .  S
C2195      C2199   1.551       .  S
C2197      H2198   1.110       .  S
C2197      C2203   1.543       .  S
C2197      C2202   1.540       .  S
C2197      C2204   1.525       .  S
C2199      C2202   1.388       .  D
C2199      C2416   1.501       .  S
C2200      C2203   1.378       .  D
C2200      C2392   1.499       .  S
C2201      C2204   1.374       .  D
C2201      C2353   1.498       .  S
C2202      C2401   1.509       .  S
C2203      C2380   1.488       .  S
C2204      C2368   1.484       .  S
C2205      C2206   1.412       .  A
C2205      C2210   1.408       .  A
C2205      C2344   1.489       .  S
C2206      C2207   1.414       .  A
C2206      H2211   1.082       .  S
C2207      C2208   1.401       .  A
C2207      C2389   1.505       .  S
C2208      C2209   1.397       .  A
C2208      H2212   1.073       .  S
C2209      C2210   1.399       .  A
C2209      C2452   1.480       .  S
C2210      H2213   1.084       .  S
C2214      C2215   1.411       .  A
C2214      C2219   1.409       .  A
C2214      C2332   1.494       .  S
C2215      C2216   1.410       .  A
C2215      H2220   1.083       .  S
C2216      C2217   1.401       .  A
C2216      C2464   1.499       .  S
C2217      C2218   1.398       .  A
C2217      H2221   1.078       .  S
C2218      C2219   1.404       .  A
C2218      C2377   1.491       .  S
C2219      H2222   1.083       .  S
C2223      C2228   1.403   1_545  A
C2223      C2320   1.485       .  S
C2224      C2225   1.412       .  A
C2224      H2229   1.081       .  S
C2225      C2226   1.408       .  A
C2225      C2476   1.503       .  S
C2226      H2230   1.082       .  S
C2227      C2228   1.398       .  A
C2227      C2365   1.481       .  S
C2228      H2231   1.084       .  S
C2232      C2237   1.410       .  A
C2232      C2308   1.481       .  S
C2233      C2234   1.396       .  A
C2233      H2238   1.084       .  S
C2234      C2488   1.473       .  S
C2235      C2236   1.408   1_545  A
C2235      H2239   1.081       .  S
C2236      C2237   1.417       .  A
C2236      C2356   1.510       .  S
C2237      H2240   1.082       .  S
C2241      C2246   1.409   1_455  A
C2241      C2293   1.492       .  S
C2242      C2243   1.402       .  A
C2242      H2247   1.083       .  S
C2243      C2244   1.402       .  A
C2243      C2413   1.479       .  S
C2244      H2248   1.085       .  S
C2245      C2246   1.405       .  A
C2245      C2440   1.481       .  S
C2246      H2249   1.084       .  S
C2250      C2251   1.412       .  A
C2250      C2281   1.487       .  S
C2251      C2252   1.411       .  A
C2251      H2256   1.079       .  S
C2252      C2428   1.506       .  S
C2253      C2254   1.400       .  A
C2253      H2257   1.084       .  S
C2254      C2255   1.403       .  A
C2254      C2404   1.495       .  S
C2255      H2258   1.082       .  S
O2260     Cr2277   2.008       .  S
O2260      C2261   1.264       .  A
C2261      C2341   1.476       .  S
C2261      O2262   1.259       .  A
C2264      C2296   1.475       .  S
C2264      O2265   1.261       .  A
O2266      C2267   1.262       .  A
C2267      C2305   1.484       .  S
O2268      C2276   1.270   1_565  A
O2269      C2270   1.261       .  A
C2270      C2329   1.481       .  S
C2270      O2271   1.266       .  A
O2271     Cr2278   2.007       .  S
C2273      C2284   1.489       .  S
C2273      O2274   1.262       .  A
O2274     Cr2279   2.004       .  S
O2275     Cr2279   1.968       .  S
C2276      C2317   1.471       .  S
Cr2277     O2280   1.778       .  S
C2281      C2286   1.415       .  A
C2282      C2283   1.396       .  A
C2282      H2291   1.085       .  S
C2283      C2284   1.417       .  A
C2283      S2287   1.801       .  S
C2285      C2286   1.407       .  A
C2285      H2292   1.084       .  S
C2286      S2288   1.803       .  S
S2287      H2290   1.407       .  S
S2288      H2289   1.406       .  S
C2293      C2294   1.409   1_455  A
C2294      C2295   1.404       .  A
C2294      H2303   1.084       .  S
C2295      S2299   1.804       .  S
C2296      C2297   1.400       .  A
C2297      C2298   1.399       .  A
C2297      H2304   1.083       .  S
C2298      S2300   1.804       .  S
S2299      H2302   1.406       .  S
S2300      H2301   1.407       .  S
C2305      C2310   1.414       .  A
C2306      C2307   1.401       .  A
C2306      H2315   1.084       .  S
C2307      C2308   1.412   1_545  A
C2307      S2311   1.804       .  S
C2309      C2310   1.402       .  A
C2309      H2316   1.084       .  S
C2310      S2312   1.801       .  S
S2311      H2314   1.406       .  S
S2312      H2313   1.407       .  S
C2317      C2322   1.410   1_545  A
C2318      C2319   1.398       .  A
C2318      H2327   1.084       .  S
C2319      S2323   1.802       .  S
C2320      C2321   1.407   1_545  A
C2321      C2322   1.402       .  A
C2321      H2328   1.084       .  S
C2322      S2324   1.803       .  S
S2323      H2326   1.406       .  S
S2324      H2325   1.406       .  S
C2329      C2330   1.403       .  A
C2329      C2334   1.413       .  A
C2330      C2331   1.404       .  A
C2330      H2339   1.084       .  S
C2331      C2332   1.418       .  A
C2331      S2335   1.804       .  S
C2332      C2333   1.406       .  A
C2333      C2334   1.401       .  A
C2333      H2340   1.084       .  S
C2334      S2336   1.802       .  S
S2335      H2338   1.407       .  S
S2336      H2337   1.404       .  S
C2341      C2342   1.400       .  A
C2341      C2346   1.413       .  A
C2342      C2343   1.402       .  A
C2342      H2351   1.081       .  S
C2343      C2344   1.416       .  A
C2343      S2347   1.804       .  S
C2344      C2345   1.405       .  A
C2345      C2346   1.403       .  A
C2345      H2352   1.084       .  S
C2346      S2348   1.803       .  S
S2347      H2350   1.407       .  S
S2348      H2349   1.403       .  S
C2353      C2354   1.398       .  A
C2353      C2358   1.418       .  A
C2354      C2355   1.400       .  A
C2354      H2363   1.081       .  S
C2355      C2356   1.424       .  A
C2355      S2359   1.805       .  S
C2356      C2357   1.409       .  A
C2357      C2358   1.403       .  A
C2357      H2364   1.081       .  S
C2358      S2360   1.799       .  S
S2360      H2361   1.389       .  S
C2365      C2366   1.404       .  A
C2365      C2370   1.413       .  A
C2366      C2367   1.397       .  A
C2366      H2375   1.084       .  S
C2367      C2368   1.410       .  A
C2367      S2371   1.795       .  S
C2368      C2369   1.402       .  A
C2369      C2370   1.397       .  A
C2369      H2376   1.080       .  S
C2370      S2372   1.804       .  S
S2371      H2374   1.404       .  S
S2372      H2373   1.406       .  S
C2377      C2378   1.407       .  A
C2377      C2382   1.415       .  A
C2378      C2379   1.401       .  A
C2378      H2387   1.084       .  S
C2379      C2380   1.415       .  A
C2379      S2383   1.803       .  S
C2380      C2381   1.402       .  A
C2381      C2382   1.398       .  A
C2381      H2388   1.080       .  S
C2382      S2384   1.805       .  S
S2383      H2386   1.398       .  S
S2384      H2385   1.407       .  S
C2389      C2390   1.405       .  A
C2389      C2394   1.425       .  A
C2390      C2391   1.400       .  A
C2390      H2399   1.082       .  S
C2391      C2392   1.413       .  A
C2391      S2395   1.788       .  S
C2392      C2393   1.400       .  A
C2393      C2394   1.403       .  A
C2393      H2400   1.080       .  S
C2394      S2396   1.806       .  S
S2395      H2398   1.405       .  S
S2396      H2397   1.407       .  S
C2401      C2402   1.415       .  A
C2401      C2406   1.415       .  A
C2402      C2403   1.408       .  A
C2402      H2411   1.078       .  S
C2403      C2404   1.411       .  A
C2403      S2407   1.802       .  S
C2404      C2405   1.403       .  A
C2405      C2406   1.390       .  A
C2405      H2412   1.076       .  S
C2406      S2408   1.805       .  S
S2407      H2410   1.406       .  S
S2408      H2409   1.407       .  S
C2413      C2414   1.401       .  A
C2413      C2418   1.410       .  A
C2414      C2415   1.402       .  A
C2414      H2423   1.084       .  S
C2415      C2416   1.421       .  A
C2415      S2419   1.806       .  S
C2416      C2417   1.406       .  A
C2417      C2418   1.400       .  A
C2417      H2424   1.079       .  S
C2418      S2420   1.804       .  S
S2419      H2422   1.398       .  S
S2420      H2421   1.406       .  S
C2425      C2426   1.409       .  A
C2425      C2430   1.410       .  A
C2426      C2427   1.408       .  A
C2426      H2435   1.084       .  S
C2427      C2428   1.418       .  A
C2427      S2431   1.801       .  S
C2428      C2429   1.411       .  A
C2429      C2430   1.386       .  A
C2429      H2436   1.075       .  S
C2430      S2432   1.809       .  S
S2431      H2434   1.407       .  S
S2432      H2433   1.401       .  S
C2437      C2438   1.407       .  A
C2437      C2442   1.419       .  A
C2438      C2439   1.403       .  A
C2438      H2447   1.084       .  S
C2439      C2440   1.412       .  A
C2439      S2443   1.804       .  S
C2440      C2441   1.400       .  A
C2441      C2442   1.403       .  A
C2441      H2448   1.083       .  S
C2442      S2444   1.805       .  S
S2444      H2445   1.406       .  S
C2449      C2450   1.410       .  A
C2449      C2454   1.415       .  A
C2450      C2451   1.405       .  A
C2450      H2459   1.083       .  S
C2451      C2452   1.411       .  A
C2451      S2455   1.804       .  S
C2452      C2453   1.400       .  A
C2453      C2454   1.400       .  A
C2453      H2460   1.083       .  S
C2454      S2456   1.802       .  S
S2455      H2458   1.404       .  S
S2456      H2457   1.406       .  S
C2461      C2462   1.401       .  A
C2461      C2466   1.417       .  A
C2462      C2463   1.391       .  A
C2462      H2471   1.083       .  S
C2463      C2464   1.421       .  A
C2463      S2467   1.802       .  S
C2464      C2465   1.408       .  A
C2465      C2466   1.405       .  A
C2465      H2472   1.083       .  S
C2466      S2468   1.797       .  S
S2467      H2470   1.408       .  S
S2468      H2469   1.399       .  S
C2473      C2474   1.407       .  A
C2473      C2478   1.416       .  A
C2474      C2475   1.406       .  A
C2474      H2483   1.083       .  S
C2475      C2476   1.420       .  A
C2475      S2479   1.799       .  S
C2476      C2477   1.407       .  A
C2477      C2478   1.390       .  A
C2477      H2484   1.082       .  S
C2478      S2480   1.802       .  S
S2479      H2482   1.407       .  S
S2480      H2481   1.395       .  S
C2485      C2486   1.402       .  A
C2485      C2490   1.415       .  A
C2486      C2487   1.398       .  A
C2486      H2495   1.084       .  S
C2487      C2488   1.412       .  A
C2487      S2491   1.804       .  S
C2488      C2489   1.400       .  A
C2489      C2490   1.402       .  A
C2489      H2496   1.083       .  S
C2490      S2492   1.808       .  S
S2491      H2494   1.405       .  S
S2492      H2493   1.406       .  S
