geometry optimzed in LAMMPS
_audit_creation_date              2020-11-30 
_audit_creation_method            'lammps2cif' 
_symmetry_space_group_name_H-M    'P1' 
_symmetry_Int_Tables_number       1 
_symmetry_cell_setting            triclinic 
loop_ 
_symmetry_equiv_pos_as_xyz 
  x,y,z 
_cell_length_a                    50.99775572 
_cell_length_b                    51.405569506215016 
_cell_length_c                    52.65270547696526 
_cell_angle_alpha                 91.35793566734999 
_cell_angle_beta                  88.71470177787187 
_cell_angle_gamma                 114.32939961256963 
loop_ 
_atom_site_label 
_atom_site_type_symbol 
_atom_site_fract_x 
_atom_site_fract_y 
_atom_site_fract_z 
_atom_site_charge 
O1          O  0.35546581  0.12050995  0.03560100    -0.80800
O2          O  0.35526491  0.22889904  0.97862195    -0.65500
O3          O  0.34641201  0.16964241  0.02617298    -1.12100
C4          C  0.27186470  0.11358274  0.96860534     1.06000
O5          O  0.30832791  0.21509597  0.98131482    -0.78700
O6          O  0.26747814  0.16810254  0.99968377    -0.66300
Ni7        Ni  0.37844385  0.16051599  0.03135777     1.34900
C8          C  0.26889606  0.16014218  0.02200542     0.84800
O9          O  0.38280894  0.22746279  0.02286700    -0.79300
O10         O  0.40616170  0.19974836  0.02917213    -0.89600
C11         C  0.33263483  0.23243403  0.97317703     0.84400
O12         O  0.38160919  0.15366960  0.99610348    -0.67800
O13         O  0.27440623  0.13698403  0.95875924    -0.87000
C14         C  0.39149867  0.17385487  0.98057502     0.85200
C15         C  0.40452464  0.22376479  0.03095014     1.06800
H16         H  0.33230591  0.16450893  0.96933382     0.38600
O17         O  0.32335757  0.16980210  0.98377102    -1.09700
O18         O  0.28771733  0.15107081  0.02825021    -0.66400
Ni19       Ni  0.31494160  0.14077979  0.00824426     1.26300
O20         O  0.38319828  0.19420150  0.98196474    -0.66600
O21         O  0.28442378  0.11228103  0.98891565    -0.78900
C22         C  0.32896782  0.10402549  0.03793330     0.84600
O23         O  0.30918278  0.11176117  0.03242431    -0.66100
Ni24       Ni  0.29215569  0.17603458  0.97044582     1.27400
Ni25       Ni  0.35296534  0.19964933  0.00243199     1.26100
H26         H  0.33988327  0.17438188  0.04245788     0.39100
O27         O  0.28791555  0.18873067  0.47205256    -0.80800
O28         O  0.38769596  0.19256020  0.53342026    -0.65500
O29         O  0.33464633  0.17631359  0.47954915    -1.12100
C30         C  0.27578924  0.09950719  0.53223172     1.06000
O31         O  0.38060828  0.14712424  0.53236402    -0.78700
O32         O  0.33833819  0.10511367  0.50596843    -0.66300
Ni33       Ni  0.32834219  0.20582453  0.46381165     1.34900
C34         C  0.32625302  0.10284680  0.48469650     0.84800
O35         O  0.39195590  0.21579710  0.48748206    -0.79300
O36         O  0.36882065  0.22458438  0.45499660    -0.89600
C37         C  0.39561405  0.17302408  0.53875515     0.84400
O38         O  0.33298412  0.23109472  0.49203622    -0.67800
O39         O  0.29956165  0.10294706  0.54227195    -0.87000
C40         C  0.34034421  0.23126547  0.51484332     0.85200
C41         C  0.39186947  0.22788911  0.46653113     1.06800
H42         H  0.32409662  0.16340055  0.53723470     0.38600
O43         O  0.33095663  0.15550338  0.52314019    -1.09700
O44         O  0.31308023  0.11822318  0.47886994    -0.66400
Ni45       Ni  0.30338446  0.14658931  0.49679661     1.26300
O46         O  0.34981500  0.21359783  0.52289676    -0.66600
O47         O  0.27361342  0.11587058  0.51514266    -0.78900
C48         C  0.27066537  0.16372198  0.46535544     0.84600
O49         O  0.27623339  0.14239066  0.47040891    -0.66100
Ni50       Ni  0.33957656  0.12613373  0.53662278     1.27400
Ni51       Ni  0.36157836  0.18598570  0.50617241     1.26100
H52         H  0.34171029  0.16756779  0.46618992     0.39100
N53         N  0.41958014  0.00422328  0.71048869    -0.36600
N54         N  0.39016444  0.46346186  0.75091609    -0.57100
N55         N  0.41332095  0.00923233  0.78840090    -0.36600
N56         N  0.44399914  0.04973037  0.74816474    -0.57100
C57         C  0.41159477  0.47910978  0.69749523     0.27000
C58         C  0.43864412  0.02493921  0.69563887     0.27000
C59         C  0.39831636  0.48754390  0.80423273     0.27000
C60         C  0.42508512  0.03336402  0.80269170     0.27000
C61         C  0.37886886  0.44652757  0.73040184     0.35600
C62         C  0.37667155  0.44852738  0.77172948     0.35600
C63         C  0.45444783  0.06546298  0.72710671     0.35600
C64         C  0.45069458  0.06826672  0.76812391     0.35600
C65         C  0.42588569  0.48404918  0.67413882    -0.21800
C66         C  0.44222696  0.01294350  0.67270870    -0.21800
C67         C  0.40042999  0.49814397  0.82892455    -0.21800
C68         C  0.41716319  0.02695137  0.82795629    -0.21800
C69         C  0.35723846  0.42095672  0.73820195    -0.22900
C70         C  0.35639819  0.42193594  0.76427041    -0.22900
C71         C  0.46830524  0.09409691  0.73380787    -0.22900
C72         C  0.46602968  0.09584458  0.75970270    -0.22900
C73         C  0.39027156  0.45218120  0.70523152    -0.18200
C74         C  0.45221144  0.05450244  0.70188484    -0.18200
C75         C  0.44293594  0.06109323  0.79389504    -0.18200
C76         C  0.38282684  0.45833304  0.79733026    -0.18200
H77         H  0.42423937  0.46856442  0.65928274     0.14700
H78         H  0.45541900  0.02373188  0.65659743     0.14700
H79         H  0.39076415  0.48637695  0.84593603     0.14700
H80         H  0.42287955  0.04147959  0.84414777     0.14700
H81         H  0.34429573  0.40283193  0.72645554     0.12900
H82         H  0.34249684  0.40474828  0.77619637     0.12900
H83         H  0.47891505  0.11193490  0.72136708     0.12900
H84         H  0.47415208  0.11531150  0.77099935     0.12900
H85         H  0.40999156  0.00752311  0.72711934     0.26200
H86         H  0.41657892  0.00755838  0.76917212     0.26200
N87         N  0.14134469  0.13676783  0.70930430    -0.36600
N88         N  0.15118534  0.10693715  0.75063047    -0.57100
N89         N  0.11902410  0.12711679  0.78566836    -0.36600
N90         N  0.10980717  0.15766107  0.74650710    -0.57100
C91         C  0.14747862  0.11659648  0.69672608     0.27000
C92         C  0.12330063  0.14294184  0.69464188     0.27000
C93         C  0.11879291  0.10368262  0.79679648     0.27000
C94         C  0.09579611  0.13108731  0.79442635     0.27000
C95         C  0.16932232  0.10413175  0.73284709     0.35600
C96         C  0.16030009  0.10264972  0.77333972     0.35600
C97         C  0.11251691  0.17373159  0.72607167     0.35600
C98         C  0.10150346  0.16991362  0.76622047     0.35600
C99         C  0.13472821  0.11142398  0.67303740    -0.21800
C100        C  0.11878685  0.12735155  0.67205067    -0.21800
C101        C  0.09462078  0.09202661  0.81248383    -0.21800
C102        C  0.08023695  0.10961299  0.81119989    -0.21800
C103        C  0.19062103  0.09863332  0.74432697    -0.22900
C104        C  0.18584471  0.09934241  0.77015550    -0.22900
C105        C  0.10689489  0.19718862  0.73297144    -0.22900
C106        C  0.10062434  0.19515498  0.75870524    -0.22900
C107        C  0.16331269  0.10208445  0.70673681    -0.18200
C108        C  0.11119364  0.16255024  0.70123280    -0.18200
C109        C  0.09051194  0.15536816  0.78910226    -0.18200
C110        C  0.14209522  0.09548256  0.79513261    -0.18200
H111        H  0.13586757  0.09699225  0.65821816     0.14700
H112        H  0.10533640  0.12723477  0.65641802     0.14700
H113        H  0.08865515  0.07355266  0.82441288     0.14700
H114        H  0.06099321  0.10729063  0.82179797     0.14700
H115        H  0.20719927  0.09357816  0.73531576     0.12900
H116        H  0.19796980  0.09472668  0.78464122     0.12900
H117        H  0.10540541  0.21286428  0.72039598     0.12900
H118        H  0.09374833  0.20916295  0.76995679     0.12900
H119        H  0.14966662  0.14650624  0.72666430     0.26200
H120        H  0.13640906  0.14184567  0.77552751     0.26200
N121        N  0.00257563  0.40281582  0.78932470    -0.36600
N122        N  0.46513471  0.37429366  0.74700978    -0.57100
N123        N  0.01406287  0.39745743  0.71285350    -0.36600
N124        N  0.05162851  0.42567725  0.75490598    -0.57100
C125        C  0.47603712  0.39611534  0.79972639     0.27000
C126        C  0.02166032  0.42345120  0.80437240     0.27000
C127        C  0.49418877  0.37983785  0.69659315     0.27000
C128        C  0.04002666  0.40507695  0.70123706     0.27000
C129        C  0.44616600  0.36271916  0.76629997     0.35600
C130        C  0.45146752  0.36248397  0.72514972     0.35600
C131        C  0.06523462  0.43914109  0.77638146     0.35600
C132        C  0.07014694  0.43713327  0.73515060     0.35600
C133        C  0.47837377  0.41307326  0.82117296    -0.21800
C134        C  0.00701089  0.43041124  0.82397729    -0.21800
C135        C  0.50755243  0.37576854  0.67463354    -0.21800
C136        C  0.03659161  0.39121752  0.67777450    -0.21800
C137        C  0.42085771  0.34210655  0.75667063    -0.22900
C138        C  0.42375156  0.34290022  0.73063813    -0.22900
C139        C  0.09281619  0.45865344  0.76962194    -0.22900
C140        C  0.09511927  0.45850835  0.74389503    -0.22900
C141        C  0.44996341  0.37359442  0.79168636    -0.18200
C142        C  0.05201698  0.43622785  0.80121455    -0.18200
C143        C  0.06596167  0.42728795  0.70954644    -0.18200
C144        C  0.46414411  0.36836699  0.70047867    -0.18200
H145        H  0.46123964  0.41258169  0.83387505     0.14700
H146        H  0.01606441  0.44623743  0.83893146     0.14700
H147        H  0.49737069  0.36309731  0.65804310     0.14700
H148        H  0.05317790  0.39324301  0.66379076     0.14700
H149        H  0.40157934  0.32903984  0.76712491     0.12900
H150        H  0.40737108  0.33002117  0.71746072     0.12900
H151        H  0.11009630  0.47309912  0.78082180     0.12900
H152        H  0.11376156  0.47233480  0.73313438     0.12900
H153        H  0.00761551  0.39160969  0.77468071     0.26200
H154        H  0.00971297  0.40713742  0.72898241     0.26200
C155        C  0.49107545  0.17351396  0.59430269     0.02300
C156        C  0.01916129  0.19502841  0.59712067     0.02300
C157        C  0.03567547  0.19364794  0.61732165    -0.18200
C158        C  0.02724015  0.16953016  0.63256551     0.02300
C159        C  0.49953692  0.14664263  0.62887063     0.02300
C160        C  0.48211834  0.14924104  0.60952684    -0.18200
H161        H  0.46078595  0.13248629  0.60676635     0.04300
H162        H  0.05667072  0.21101779  0.62004218     0.04300
C163        C  0.18997549  0.01311513  0.59169507     0.02300
C164        C  0.17576167  0.48265582  0.59327802     0.02300
C165        C  0.15728276  0.47091555  0.61410622    -0.18200
C166        C  0.15356110  0.48773949  0.63394039     0.02300
C167        C  0.16938346  0.01779846  0.63367551     0.02300
C168        C  0.18697156  0.02967338  0.61242497    -0.18200
H169        H  0.19832571  0.05272202  0.61179975     0.04300
H170        H  0.14521933  0.44792577  0.61486652     0.04300
C171        C  0.33435363  0.32309514  0.90799993     0.02300
C172        C  0.32225676  0.34356317  0.91128752     0.02300
C173        C  0.33052927  0.36638804  0.89421301    -0.18200
C174        C  0.34947371  0.36909384  0.87352765     0.02300
C175        C  0.36050146  0.34781450  0.86976448     0.02300
C176        C  0.35208124  0.32504777  0.88670485    -0.18200
H177        H  0.36018333  0.30873427  0.88365767     0.04300
H178        H  0.32204297  0.38241566  0.89717100     0.04300
C179        C  0.34783851  0.32117311  0.58720635     0.02300
C180        C  0.32918794  0.33492618  0.59286399     0.02300
C181        C  0.33487633  0.35330797  0.61405370    -0.18200
C182        C  0.35965675  0.36069053  0.62869993     0.02300
C183        C  0.37880433  0.34728161  0.62284734     0.02300
C184        C  0.37260693  0.32818629  0.60192192    -0.18200
H185        H  0.38714304  0.31819606  0.59715710     0.04300
H186        H  0.31977035  0.36260154  0.61892183     0.04300
C187        C  0.18626762  0.02585194  0.90948194     0.02300
C188        C  0.17176534  0.49567414  0.91017624     0.02300
C189        C  0.14815133  0.48145153  0.89421288    -0.18200
C190        C  0.13838013  0.49629464  0.87746533     0.02300
C191        C  0.15497310  0.02638486  0.87536731     0.02300
C192        C  0.17787498  0.04050245  0.89175183    -0.18200
H193        H  0.18985617  0.06345211  0.89032688     0.04300
H194        H  0.13785293  0.45834935  0.89444039     0.04300
C195        C  0.48172272  0.17490680  0.90937318     0.02300
C196        C  0.01106913  0.19493905  0.90787238     0.02300
C197        C  0.02775757  0.19344248  0.88680147    -0.18200
C198        C  0.01731017  0.17202296  0.86810546     0.02300
C199        C  0.48833550  0.15148427  0.87002765     0.02300
C200        C  0.47116554  0.15332267  0.89060828    -0.18200
H201        H  0.44902456  0.13771849  0.89200053     0.04300
H202        H  0.04972664  0.20935794  0.88502825     0.04300
O203        O  0.12191126  0.35541370  0.46808448    -0.80800
O204        O  0.22677974  0.35305123  0.53079904    -0.65500
O205        O  0.17024131  0.34484160  0.48032609    -1.12100
C206        C  0.10814506  0.27387383  0.53668095     1.06000
O207        O  0.21131258  0.30613014  0.53216311    -0.78700
O208        O  0.16522717  0.26737513  0.51055129    -0.66300
Ni209      Ni  0.16256285  0.37707971  0.47293758     1.34900
C210        C  0.15815613  0.26793549  0.48773681     0.84800
O211        O  0.22861960  0.37864052  0.48517010    -0.79300
O212        O  0.20254880  0.40296427  0.47526797    -0.89600
C213        C  0.22988326  0.33086212  0.53776719     0.84400
O214        O  0.15539934  0.38348265  0.50760774    -0.67800
O215        O  0.13054822  0.27552700  0.54818638    -0.87000
C216        C  0.17513395  0.39215042  0.52392295     0.85200
C217        C  0.22611309  0.39995784  0.47521092     1.06800
H218        H  0.16155533  0.33312354  0.53744000     0.38600
O219        O  0.16711732  0.32328061  0.52397192    -1.09700
O220        O  0.14938009  0.28642749  0.48027449    -0.66400
Ni221      Ni  0.13953724  0.31516543  0.49770913     1.26300
O222        O  0.19443840  0.38233461  0.52411912    -0.66600
O223        O  0.10880780  0.28655741  0.51612196    -0.78900
C224        C  0.10565002  0.32917498  0.46443147     0.84600
O225        O  0.11265994  0.30950950  0.47136164    -0.66100
Ni226      Ni  0.17091336  0.29199960  0.53952320     1.27400
Ni227      Ni  0.19887905  0.35083714  0.50554473     1.26100
H228        H  0.17541405  0.33762352  0.46474118     0.39100
O229        O  0.19171766  0.29162003  0.01791073    -0.80800
O230        O  0.19516755  0.39396368  0.96756974    -0.65500
O231        O  0.17600180  0.33602999  0.01671680    -1.12100
C232        C  0.09703628  0.28478632  0.96648101     1.06000
O233        O  0.14954638  0.38809515  0.96533692    -0.78700
O234        O  0.12056276  0.35374246  0.00326398    -0.66300
Ni235      Ni  0.20582604  0.32947274  0.03195622     1.34900
C236        C  0.10874531  0.33298150  0.01798550     0.84800
O237        O  0.21734588  0.39254672  0.01247779    -0.79300
O238        O  0.22130589  0.36778193  0.04573618    -0.89600
C239        C  0.17636534  0.40311521  0.96230856     0.84400
O240        O  0.23460136  0.34052470  0.00574562    -0.67800
O241        O  0.09625342  0.30922510  0.96830027    -0.87000
C242        C  0.23355644  0.34594094  0.98257826     0.85200
C243        C  0.22699071  0.39127395  0.03438465     1.06800
H244        H  0.16224266  0.33273954  0.95747691     0.38600
O245        O  0.15554193  0.33736933  0.97352121    -1.09700
O246        O  0.11609114  0.31189762  0.01675578    -0.66400
Ni247      Ni  0.14721076  0.30673681  0.99682827     1.26300
O248        O  0.21391060  0.35277843  0.97420059    -0.66600
O249        O  0.11792248  0.28000355  0.97516707    -0.78900
C250        C  0.16733260  0.27273778  0.02419480     0.84600
O251        O  0.14445701  0.27630744  0.01951382    -0.66100
Ni252      Ni  0.12491677  0.34819926  0.96790680     1.27400
Ni253      Ni  0.18693319  0.36505861  0.99227760     1.26100
H254        H  0.16636717  0.34158597  0.03042387     0.39100
N255        N  0.49245878  0.09591559  0.21297374    -0.36600
N256        N  0.44893038  0.07031809  0.25166426    -0.57100
N257        N  0.49130997  0.09953110  0.28970040    -0.36600
N258        N  0.03508445  0.12712477  0.25077277    -0.57100
C259        C  0.46759759  0.08959070  0.20052787     0.27000
C260        C  0.01365454  0.11644950  0.19973599     0.27000
C261        C  0.46709634  0.08813607  0.30427312     0.27000
C262        C  0.01245069  0.11811971  0.30451414     0.27000
C263        C  0.43427054  0.05627536  0.23105126     0.35600
C264        C  0.43433975  0.05556233  0.27197174     0.35600
C265        C  0.05192778  0.12710757  0.23038143     0.35600
C266        C  0.05189055  0.13281767  0.27155961     0.35600
C267        C  0.47267473  0.10683699  0.17965108    -0.21800
C268        C  0.00165200  0.12422281  0.17942596    -0.21800
C269        C  0.47270817  0.09995297  0.32848519    -0.21800
C270        C  0.00130239  0.11804474  0.32888392    -0.21800
C271        C  0.41007619  0.03252996  0.23813930    -0.22900
C272        C  0.41019462  0.03192693  0.26421445    -0.22900
C273        C  0.07910093  0.13183107  0.23837994    -0.22900
C274        C  0.07980148  0.13787146  0.26383360    -0.22900
C275        C  0.44121589  0.06664936  0.20629594    -0.18200
C276        C  0.04334398  0.12521531  0.20464949    -0.18200
C277        C  0.04209022  0.13169213  0.29742575    -0.18200
C278        C  0.44104410  0.06500316  0.29729478    -0.18200
H279        H  0.45718414  0.10659469  0.16582188     0.14700
H280        H  0.01213079  0.14004344  0.16536830     0.14700
H281        H  0.45818561  0.09476596  0.34473428     0.14700
H282        H  0.01239025  0.12849643  0.34589755     0.14700
H283        H  0.39360545  0.01796091  0.22583383     0.12900
H284        H  0.39377639  0.01662498  0.27611271     0.12900
H285        H  0.09718203  0.13246251  0.22693498     0.12900
H286        H  0.09883591  0.14409507  0.27515751     0.12900
H287        H  0.49555391  0.08405486  0.22750089     0.26200
H288        H  0.49433621  0.09199312  0.27191492     0.26200
N289        N  0.37677372  0.36889775  0.28710602    -0.36600
N290        N  0.36304897  0.40500238  0.25473688    -0.57100
N291        N  0.37243126  0.37301376  0.21269522    -0.36600
N292        N  0.38396231  0.33395813  0.24470447    -0.57100
C293        C  0.36446201  0.38096514  0.30395165     0.27000
C294        C  0.37862162  0.34649166  0.29841807     0.27000
C295        C  0.35887065  0.38749947  0.20172103     0.27000
C296        C  0.37305573  0.35319826  0.19569716     0.27000
C297        C  0.36869768  0.42048641  0.27651371     0.35600
C298        C  0.36672660  0.42334031  0.23574981     0.35600
C299        C  0.39834680  0.32745751  0.26307630     0.35600
C300        C  0.39382751  0.32773339  0.22232732     0.35600
C301        C  0.35706192  0.36502765  0.32594881    -0.21800
C302        C  0.36686175  0.34374466  0.32270982    -0.21800
C303        C  0.34925626  0.37562032  0.17798894    -0.21800
C304        C  0.35927887  0.35485194  0.17377735    -0.21800
C305        C  0.37587145  0.44896633  0.27140766    -0.22900
C306        C  0.37467093  0.45075755  0.24541397    -0.22900
C307        C  0.41591617  0.31543182  0.25239980    -0.22900
C308        C  0.41229088  0.31468724  0.22666133    -0.22900
C309        C  0.36406024  0.40815860  0.30079642    -0.18200
C310        C  0.39645455  0.33330943  0.28924625    -0.18200
C311        C  0.39034634  0.33794792  0.19837069    -0.18200
C312        C  0.36096071  0.41462785  0.21016664    -0.18200
H313        H  0.34774927  0.36961195  0.34322276     0.14700
H314        H  0.36668230  0.32883189  0.33695556     0.14700
H315        H  0.33871134  0.38305804  0.16408453     0.14700
H316        H  0.35756136  0.34366512  0.15597148     0.14700
H317        H  0.38087919  0.46636987  0.28503629     0.12900
H318        H  0.37858210  0.46976464  0.23484940     0.12900
H319        H  0.43057453  0.30870227  0.26193255     0.12900
H320        H  0.42386172  0.30757585  0.21265180     0.12900
H321        H  0.38831216  0.37833773  0.27078596     0.26200
H322        H  0.38555124  0.37983956  0.22850471     0.26200
C323        C  0.33141747  0.01447860  0.41572804     0.02300
C324        C  0.31823631  0.48410654  0.41757724     0.02300
C325        C  0.32670583  0.46768424  0.40016591    -0.18200
C326        C  0.34599244  0.48002002  0.38013535     0.02300
C327        C  0.35848694  0.01005513  0.37784833     0.02300
C328        C  0.35103875  0.02668781  0.39559779    -0.18200
H329        H  0.36118688  0.04974600  0.39398590     0.04300
H330        H  0.31673530  0.44457131  0.40132258     0.04300
N331        N  0.08618825  0.49422618  0.28817896    -0.36600
N332        N  0.05866183  0.45634101  0.24707038    -0.57100
N333        N  0.07726055  0.50556289  0.21219049    -0.36600
N334        N  0.10709433  0.04359337  0.25340933    -0.57100
C335        C  0.08040016  0.46866828  0.29909100     0.27000
C336        C  0.10590969  0.01481992  0.30266378     0.27000
C337        C  0.06792273  0.48348192  0.19522072     0.27000
C338        C  0.09169181  0.02986134  0.19896721     0.27000
C339        C  0.04728962  0.43772876  0.26639820     0.35600
C340        C  0.04460461  0.44325843  0.22572936     0.35600
C341        C  0.11561562  0.05763547  0.27591662     0.35600
C342        C  0.11105395  0.06367695  0.23558678     0.35600
C343        C  0.09720246  0.47320025  0.32049357    -0.21800
C344        C  0.11303166  0.00228793  0.32288469    -0.21800
C345        C  0.07611283  0.49393074  0.17092525    -0.21800
C346        C  0.09068558  0.02307146  0.17323969    -0.21800
C347        C  0.02549013  0.41295853  0.25726444    -0.22900
C348        C  0.02465175  0.41613768  0.23150068    -0.22900
C349        C  0.12594640  0.08679412  0.27194937    -0.22900
C350        C  0.12313444  0.09059748  0.24658480    -0.22900
C351        C  0.05850018  0.44181625  0.29143832    -0.18200
C352        C  0.11495642  0.04470401  0.29985218    -0.18200
C353        C  0.10500755  0.05816032  0.20928869    -0.17000
C354        C  0.05095355  0.45429375  0.20071638    -0.18200
H355        H  0.09731796  0.45728995  0.33353371     0.14700
H356        H  0.12762092  0.01310461  0.33812712     0.14700
H357        H  0.07164040  0.48187907  0.15321492     0.14700
H358        H  0.09953237  0.03750518  0.15759813     0.14700
H359        H  0.01257063  0.39394990  0.26771335     0.12900
H360        H  0.01158095  0.39999412  0.21827473     0.12900
H361        H  0.13476231  0.10375960  0.28581845     0.12900
H362        H  0.12948746  0.11087964  0.23730587     0.12900
H363        H  0.07434441  0.49802267  0.27405150     0.26200
H364        H  0.07178468  0.50429130  0.23134821     0.26200
C365        C  0.33062738  0.00925708  0.09037285     0.02300
C366        C  0.31533792  0.47903106  0.09193859     0.02300
C367        C  0.32295798  0.46469173  0.11086676    -0.18200
C368        C  0.34436665  0.47950133  0.12853939     0.02300
C369        C  0.35973716  0.00943425  0.12678411     0.02300
C370        C  0.35297530  0.02374036  0.10747007    -0.18200
H371        H  0.36452676  0.04675194  0.10636713     0.04300
H372        H  0.31132789  0.44174012  0.11246467     0.04300
C373        C  0.15463227  0.17774986  0.41499511     0.02300
C374        C  0.16718769  0.15753181  0.41633119     0.02300
C375        C  0.15854800  0.13452953  0.39902374    -0.18200
C376        C  0.13886087  0.13086311  0.37980491     0.02300
C377        C  0.12605026  0.15091283  0.37788158     0.02300
C378        C  0.13490342  0.17411583  0.39539855    -0.18200
H379        H  0.12709006  0.19047091  0.39345483     0.04300
H380        H  0.16855956  0.11957642  0.39973353     0.04300
C381        C  0.16154186  0.17730771  0.08290304     0.02300
C382        C  0.17955828  0.16416258  0.09172091     0.02300
C383        C  0.17085517  0.14720520  0.11400100    -0.18200
C384        C  0.14332209  0.14033057  0.12576791     0.02300
C385        C  0.12733415  0.15347908  0.11598568     0.02300
C386        C  0.13574598  0.17190571  0.09579457    -0.18200
H387        H  0.12251705  0.18294252  0.09072996     0.04300
H388        H  0.18563871  0.13936028  0.12162337     0.04300
C389        C  0.48109275  0.30666737  0.40282683     0.02300
C390        C  0.01152483  0.32284306  0.40251279     0.02300
C391        C  0.02425001  0.34306474  0.38320571    -0.18200
C392        C  0.00795953  0.34753555  0.36391122     0.02300
C393        C  0.47781571  0.32998834  0.36339268     0.02300
C394        C  0.46506270  0.31064671  0.38316361    -0.18200
H395        H  0.44192668  0.29831875  0.38325049     0.04300
H396        H  0.04728355  0.35586801  0.38341964     0.04300
C397        C  0.48858221  0.31772089  0.08741140     0.02300
C398        C  0.01721843  0.33894098  0.08488086     0.02300
C399        C  0.02592680  0.36310618  0.10128697    -0.18200
C400        C  0.00797136  0.36617586  0.12103941     0.02300
C401        C  0.47953078  0.34411035  0.12392712     0.02300
C402        C  0.47141207  0.32009244  0.10768626    -0.18200
H403        H  0.45049733  0.30264793  0.11048912     0.04300
H404        H  0.04754464  0.37955775  0.09906503     0.04300
C405        C  0.03624820  0.42137943  0.33447020    -0.01800
C406        C  0.04711401  0.41741281  0.31036258     0.07900
C407        C  0.04766801  0.39034985  0.30509586    -0.01900
C408        C  0.03380732  0.36713615  0.32184340    -0.01900
C409        C  0.02289385  0.37158136  0.34565682     0.08000
C410        C  0.02803541  0.39983525  0.35284272    -0.02100
Br411      Br  0.52703624  0.41007366  0.38828591    -0.00700
Br412      Br  0.02958212  0.45493277  0.34218766    -0.00700
Br413      Br  0.03189991  0.32976947  0.31329363    -0.00700
Br414      Br  0.06895610  0.38532648  0.27604610    -0.00700
C415        C  0.04562777  0.39506648  0.15333530    -0.01800
C416        C  0.02075001  0.39125481  0.13926376     0.07900
C417        C  0.00778762  0.41062958  0.14378374    -0.01900
C418        C  0.01729231  0.43100871  0.16390923    -0.01900
C419        C  0.04089915  0.43340483  0.17879084     0.08000
C420        C  0.05557987  0.41606793  0.17277024    -0.02100
Br421      Br  0.08922020  0.42076408  0.19188977    -0.00700
Br422      Br  0.06474203  0.36967143  0.14855281    -0.00700
Br423      Br  0.49760208  0.45528200  0.17159813    -0.00700
Br424      Br  0.47782264  0.41021595  0.12185272    -0.00700
C425        C  0.15098650  0.08446824  0.32683080    -0.01800
C426        C  0.12282695  0.06333471  0.32350386     0.07900
C427        C  0.10139538  0.06137405  0.34194546    -0.01900
C428        C  0.10694983  0.08275612  0.36094211    -0.01900
C429        C  0.13387017  0.10629083  0.36173099     0.08000
C430        C  0.15653075  0.10595200  0.34573885    -0.02100
Br431      Br  0.19474608  0.13636355  0.34786486    -0.00700
Br432      Br  0.18183809  0.08423848  0.30504824    -0.00700
Br433      Br  0.07750863  0.08025321  0.38566542    -0.00700
Br434      Br  0.06348913  0.03071179  0.34041310    -0.00700
C435        C  0.13923959  0.08840456  0.17690428    -0.01800
C436        C  0.11420074  0.08300240  0.19090630     0.07900
C437        C  0.09523895  0.09573498  0.18347630    -0.01900
C438        C  0.10379389  0.11942658  0.16441215    -0.01900
C439        C  0.13022371  0.12072172  0.14900217     0.08000
C440        C  0.14288047  0.10155891  0.15374466    -0.02100
Br441      Br  0.15541883  0.08368935  0.12600230    -0.00700
Br442      Br  0.16513523  0.07134562  0.18594323    -0.00700
Br443      Br  0.06558007  0.16490045  0.14901819    -0.00700
Br444      Br  0.05685561  0.07274888  0.19746710    -0.00700
C445        C  0.43763772  0.35700654  0.31863899    -0.01800
C446        C  0.41806024  0.33163490  0.30707821     0.07900
C447        C  0.41932226  0.30559743  0.31312472    -0.01900
C448        C  0.44138290  0.30574621  0.32898529    -0.01900
C449        C  0.45842703  0.33087686  0.34288270     0.08000
C450        C  0.45385332  0.35564621  0.33912039    -0.02100
Br451      Br  0.46039454  0.38365213  0.36566626    -0.00700
Br452      Br  0.44453935  0.39402617  0.30564976    -0.00700
Br453      Br  0.44756838  0.27138374  0.33172141    -0.00700
Br454      Br  0.39041392  0.26990344  0.30076232    -0.00700
C455        C  0.44183498  0.35641301  0.18382052    -0.01800
C456        C  0.41247049  0.34097395  0.17811447     0.07900
C457        C  0.40551797  0.32792509  0.15397435    -0.01900
C458        C  0.42734608  0.33431777  0.13525536    -0.01900
C459        C  0.45675973  0.34462219  0.14261656     0.08000
C460        C  0.46282202  0.35272929  0.16836515    -0.02100
Br461      Br  0.99390571  0.34878840  0.18531445    -0.00700
Br462      Br  0.45337434  0.38170030  0.21303390    -0.00700
Br463      Br  0.41588294  0.33035391  0.10013208    -0.00700
Br464      Br  0.36826891  0.29764373  0.14752654    -0.00700
C465        C  0.33279621  0.45290081  0.33871710    -0.01800
C466        C  0.35006776  0.46062025  0.36051741     0.07900
C467        C  0.36916427  0.44768336  0.36449639    -0.01900
C468        C  0.37505506  0.43183073  0.34475192    -0.01900
C469        C  0.35791801  0.42416924  0.32270027     0.08000
C470        C  0.33540063  0.43333400  0.32081454    -0.02100
Br471      Br  0.30724225  0.41840955  0.29421709    -0.00700
Br472      Br  0.30456530  0.46803481  0.33360911    -0.00700
Br473      Br  0.40799671  0.42295197  0.34786434    -0.00700
Br474      Br  0.38505299  0.44901209  0.39765327    -0.00700
C475        C  0.33635841  0.44416530  0.19253806    -0.01800
C476        C  0.35860421  0.43446903  0.19090691     0.07900
C477        C  0.37612409  0.44012164  0.16873497    -0.01900
C478        C  0.36859075  0.45106866  0.14735567    -0.01900
C479        C  0.34876891  0.46350585  0.14986800     0.08000
C480        C  0.33261502  0.46006736  0.17259111    -0.02100
Br481      Br  0.30328120  0.47453028  0.17532472    -0.00700
Br482      Br  0.30952398  0.43405967  0.22085620    -0.00700
Br483      Br  0.38061073  0.44320394  0.11415608    -0.00700
Br484      Br  0.41027013  0.43259163  0.16717268    -0.00700
C485        C  0.37283898  0.03972704  0.33830162    -0.01800
C486        C  0.37966781  0.02471952  0.35735212     0.07900
C487        C  0.40753328  0.02532538  0.35766921    -0.01900
C488        C  0.42617911  0.03558957  0.33673086    -0.01900
C489        C  0.41945635  0.05051874  0.31764505     0.08000
C490        C  0.39319764  0.05359730  0.31912170    -0.02100
Br491      Br  0.38576913  0.07806832  0.29573102    -0.00700
Br492      Br  0.33652888  0.04314628  0.33926908    -0.00700
Br493      Br  0.46103419  0.02936661  0.33450855    -0.00700
Br494      Br  0.42288477  0.51891750  0.38873810    -0.00700
C495        C  0.39532564  0.05775946  0.18349041    -0.01800
C496        C  0.42046968  0.05296342  0.18553844     0.07900
C497        C  0.42637873  0.03550260  0.16741308    -0.01900
C498        C  0.40840938  0.02463962  0.14645534    -0.01900
C499        C  0.38156120  0.02633076  0.14595248     0.08000
C500        C  0.37542104  0.04372298  0.16423179    -0.02100
Br501      Br  0.34041156  0.04934413  0.16256656    -0.00700
Br502      Br  0.38822542  0.08342782  0.20715818    -0.00700
Br503      Br  0.42320674  0.01255126  0.11675468    -0.00700
Br504      Br  0.45748817  0.02417912  0.17243131    -0.00700
C505        C  0.08292248  0.15962554  0.35978486    -0.01800
C506        C  0.10465593  0.14878193  0.35741183     0.07900
C507        C  0.10621128  0.13597253  0.33396146    -0.01900
C508        C  0.08172217  0.12473881  0.31907727    -0.01900
C509        C  0.06390161  0.13929120  0.31823007     0.08000
C510        C  0.06651219  0.15913789  0.33816860    -0.02100
Br511      Br  0.04832577  0.18530289  0.33619740    -0.00700
Br512      Br  0.07086967  0.17026806  0.39190613    -0.00700
Br513      Br  0.07113060  0.08847464  0.30214946    -0.00700
Br514      Br  0.14208891  0.15237001  0.31570170    -0.00700
C515        C  0.05562703  0.11286797  0.15558602    -0.01800
C516        C  0.06522714  0.13062141  0.18280532     0.07900
C517        C  0.09588385  0.15848193  0.18405373    -0.01900
C518        C  0.11560738  0.16893892  0.15910611    -0.01900
C519        C  0.10512189  0.15192629  0.13242483     0.08000
C520        C  0.07565562  0.12365520  0.13067235    -0.02100
Br521      Br  0.06591386  0.10251091  0.09918185    -0.00700
Br522      Br  0.01988676  0.08021022  0.15006574    -0.00700
Br523      Br  0.15194377  0.20165228  0.16064455    -0.00700
Br524      Br  0.10434075  0.18760498  0.21027560    -0.00700
C525        C  0.18621312  0.22874929  0.07170416    -0.01800
C526        C  0.16937890  0.20040756  0.06363792     0.07900
C527        C  0.15219336  0.19612098  0.04171518    -0.01900
C528        C  0.15211532  0.21956338  0.02825620    -0.01900
C529        C  0.16713805  0.24754106  0.03767284     0.08000
C530        C  0.18468520  0.25202174  0.05917961    -0.02100
Br531      Br  0.20489337  0.29017123  0.07313662    -0.00700
Br532      Br  0.20830392  0.23600101  0.10229495    -0.00700
Br533      Br  0.13209487  0.21337806  0.99652768    -0.00700
Br534      Br  0.12569023  0.15836649  0.03156437    -0.00700
C535        C  0.07809091  0.31933835  0.05889557    -0.01800
C536        C  0.08473628  0.33328750  0.03521180     0.07900
C537        C  0.06855976  0.34889739  0.02813677    -0.01900
C538        C  0.04832939  0.35224296  0.04508082    -0.01900
C539        C  0.03951387  0.33590897  0.06725400     0.08000
C540        C  0.05530406  0.32018275  0.07446330    -0.02100
Br541      Br  0.04867493  0.30317708  0.10749529    -0.00700
Br542      Br  0.10135704  0.30083864  0.07128179    -0.00700
Br543      Br  0.03670757  0.38296477  0.03964093    -0.00700
Br544      Br  0.07169625  0.36472543  0.99457209    -0.00700
C545        C  0.27383285  0.43420580  0.03548140    -0.01800
C546        C  0.24693122  0.41810048  0.04685947     0.07900
C547        C  0.24114749  0.42538337  0.07165186    -0.01900
C548        C  0.26276503  0.44743888  0.08542511    -0.01900
C549        C  0.29099490  0.46118590  0.07510832     0.08000
C550        C  0.29648208  0.45309698  0.05040947    -0.02100
Br551      Br  0.33496898  0.46047794  0.03932907    -0.00700
Br552      Br  0.28015531  0.43024054  0.99961095    -0.00700
Br553      Br  0.25421072  0.45595647  0.11962982    -0.00700
Br554      Br  0.20336945  0.40520549  0.08654543    -0.00700
C555        C  0.16767105  0.25190631  0.44350895    -0.01800
C556        C  0.15993943  0.24561292  0.46940260     0.07900
C557        C  0.15362118  0.21745415  0.47760040    -0.01900
C558        C  0.15130852  0.19561395  0.45981677    -0.01900
C559        C  0.15955834  0.20180399  0.43409621     0.08000
C560        C  0.16793345  0.23043559  0.42617673    -0.02100
Br561      Br  0.17864452  0.24075068  0.39114769    -0.00700
Br562      Br  0.17971368  0.29044975  0.43153832    -0.00700
Br563      Br  0.13128337  0.15664375  0.47027097    -0.00700
Br564      Br  0.14761826  0.20736137  0.51316667    -0.00700
C565        C  0.06182812  0.33833542  0.45859194    -0.01800
C566        C  0.07778172  0.32233908  0.45179899     0.07900
C567        C  0.06953664  0.30383733  0.43039930    -0.01900
C568        C  0.04633345  0.30242064  0.41538569    -0.01900
C569        C  0.03141926  0.31974406  0.42138781     0.08000
C570        C  0.04041632  0.33868920  0.44246411    -0.02100
Br571      Br  0.52887124  0.36978125  0.44640119    -0.00700
Br572      Br  0.06956836  0.36043337  0.48998089    -0.00700
Br573      Br  0.03852259  0.28048523  0.38411054    -0.00700
Br574      Br  0.09185581  0.28275514  0.41988848    -0.00700
C575        C  0.24627209  0.42656556  0.43592418    -0.01800
C576        C  0.25029539  0.42217419  0.46157702     0.07900
C577        C  0.27510537  0.44123196  0.47413166    -0.01900
C578        C  0.29679018  0.46351494  0.46055054    -0.01900
C579        C  0.29328972  0.46727876  0.43448108     0.08000
C580        C  0.26725403  0.44915517  0.42265572    -0.02100
Br581      Br  0.26030605  0.45416412  0.38757321    -0.00700
Br582      Br  0.21217556  0.40061664  0.41833931    -0.00700
Br583      Br  0.33137618  0.98784086  0.47769691    -0.00700
Br584      Br  0.27877845  0.43722609  0.51002254    -0.00700
C585        C  0.03818880  0.24672718  0.91831715    -0.01800
C586        C  0.02656390  0.21821490  0.92678108     0.07900
C587        C  0.03752840  0.21221176  0.94937414    -0.01900
C588        C  0.05855476  0.23433141  0.96360443    -0.01900
C589        C  0.07224688  0.26188183  0.95352484     0.08000
C590        C  0.06168723  0.26799542  0.93079362    -0.02100
Br591      Br  0.08107658  0.30471335  0.91477643    -0.00700
Br592      Br  0.02452046  0.25615451  0.88740960    -0.00700
Br593      Br  0.06765124  0.22707351  0.99734655    -0.00700
Br594      Br  0.02858877  0.17367678  0.95883257    -0.00700
C595        C  0.19738206  0.46392539  0.91664915    -0.01800
C596        C  0.18026133  0.47760077  0.92672109     0.07900
C597        C  0.16595756  0.46875801  0.95023477    -0.01900
C598        C  0.17041399  0.44823948  0.96430664    -0.01900
C599        C  0.18445551  0.43229388  0.95299922     0.08000
C600        C  0.19895130  0.44082812  0.92953572    -0.02100
Br601      Br  0.21784904  0.41880783  0.91370759    -0.00700
Br602      Br  0.21439198  0.47330225  0.88318518    -0.00700
Br603      Br  0.15495330  0.44011359  0.99851381    -0.00700
Br604      Br  0.13437605  0.47816803  0.96033190    -0.00700
C605        C  0.27574693  0.31594492  0.58658349    -0.01800
C606        C  0.30391872  0.33204279  0.57732363     0.07900
C607        C  0.30754318  0.35049800  0.55670909    -0.01900
C608        C  0.28358258  0.34951770  0.54319639    -0.01900
C609        C  0.25550822  0.33275416  0.55197937     0.08000
C610        C  0.25173904  0.31636771  0.57408624    -0.02100
Br611      Br  0.21365833  0.29581662  0.58844623    -0.00700
Br612      Br  0.27000090  0.29607013  0.61826777    -0.00700
Br613      Br  0.28947727  0.37020982  0.51198213    -0.00700
Br614      Br  0.34437850  0.38101952  0.54962328    -0.00700
C615        C  0.30711876  0.35865481  0.95319196    -0.01800
C616        C  0.29969386  0.34153446  0.93091096     0.07900
C617        C  0.27013643  0.32622210  0.92545739    -0.01900
C618        C  0.24860364  0.32757103  0.94225002    -0.01900
C619        C  0.25623717  0.34391211  0.96499998     0.08000
C620        C  0.28579179  0.35755457  0.97117746    -0.02100
Br621      Br  0.29802523  0.37356233  0.00462215    -0.00700
Br622      Br  0.34563043  0.38749711  0.95744713    -0.00700
Br623      Br  0.20852777  0.30490892  0.93510029    -0.00700
Br624      Br  0.25890179  0.30590610  0.89356385    -0.00700
C625        C  0.18734972  0.44023801  0.58305127    -0.01800
C626        C  0.17849772  0.46141962  0.57455630     0.07900
C627        C  0.16886247  0.45954962  0.54946504    -0.01900
C628        C  0.16997968  0.43828915  0.53264289    -0.01900
C629        C  0.17676628  0.41595882  0.54157441     0.08000
C630        C  0.18543066  0.41713401  0.56700379    -0.02100
Br631      Br  0.19319477  0.38645804  0.58062776    -0.00700
Br632      Br  0.20277724  0.44293185  0.61677437    -0.00700
Br633      Br  0.16419826  0.44168528  0.49689435    -0.00700
Br634      Br  0.15081928  0.48371000  0.53862410    -0.00700
C635        C  0.04685884  0.20662627  0.55616027    -0.01800
C636        C  0.03494713  0.21596627  0.57718087     0.07900
C637        C  0.04536802  0.24559362  0.58263483    -0.01900
C638        C  0.06803808  0.26521138  0.56794391    -0.01900
C639        C  0.07997469  0.25538288  0.54757180     0.08000
C640        C  0.06767844  0.22648823  0.54041199    -0.02100
Br641      Br  0.08108284  0.21399557  0.50990645    -0.00700
Br642      Br  0.04171141  0.16746910  0.55260583    -0.00700
Br643      Br  0.08394208  0.30545270  0.57627484    -0.00700
Br644      Br  0.03217136  0.25905556  0.61263157    -0.00700
C645        C  0.42915974  0.35281756  0.83460377    -0.01800
C646        C  0.42531916  0.36266172  0.81067592     0.07900
C647        C  0.39863521  0.36376972  0.80600295    -0.01900
C648        C  0.37594794  0.35309186  0.82370902    -0.01900
C649        C  0.38170636  0.34928481  0.84898640     0.08000
C650        C  0.40866492  0.34872289  0.85431816    -0.02100
Br651      Br  0.41944624  0.34525322  0.88863171    -0.00700
Br652      Br  0.46291059  0.34589116  0.84084972    -0.00700
Br653      Br  0.33698643  0.34177110  0.81257745    -0.00700
Br654      Br  0.39380078  0.38431415  0.77809695    -0.00700
C655        C  0.06807816  0.43880772  0.84874129    -0.01800
C656        C  0.07019631  0.45081840  0.82408389     0.07900
C657        C  0.09166791  0.47811769  0.82150748    -0.01900
C658        C  0.11676302  0.48420644  0.83479832    -0.01900
C659        C  0.11304258  0.47981820  0.86073502     0.08000
C660        C  0.08775457  0.45538095  0.86808076    -0.02100
Br661      Br  0.07933272  0.44492112  0.90315699    -0.00700
Br662      Br  0.04075175  0.40062055  0.85608593    -0.00700
Br663      Br  0.13890593  0.96414266  0.82136253    -0.00700
Br664      Br  0.08083199  0.00790849  0.81181537    -0.00700
C665        C  0.11770163  0.44455827  0.69229440    -0.01800
C666        C  0.08905387  0.44202715  0.68994242     0.07900
C667        C  0.08221642  0.45359823  0.66824384    -0.01900
C668        C  0.10252775  0.46435213  0.64863851    -0.01900
C669        C  0.13183080  0.47260331  0.65369634     0.08000
C670        C  0.13948437  0.46251470  0.67573056    -0.02100
Br671      Br  0.17941643  0.47198385  0.68234101    -0.00700
Br672      Br  0.12705855  0.42251330  0.71685608    -0.00700
Br673      Br  0.08944899  0.46431052  0.61439509    -0.00700
Br674      Br  0.04626609  0.45721102  0.66544797    -0.00700
C675        C  0.42895196  0.33411768  0.66917357    -0.01800
C676        C  0.44554826  0.36225608  0.67748545     0.07900
C677        C  0.44489760  0.38513389  0.66345621    -0.01900
C678        C  0.42582101  0.37975426  0.64307504    -0.01900
C679        C  0.40470901  0.35191918  0.63858709     0.08000
C680        C  0.40755714  0.32878876  0.65076218    -0.02100
Br681      Br  0.38057251  0.28979230  0.64505497    -0.00700
Br682      Br  0.43585798  0.30305381  0.68294445    -0.00700
Br683      Br  0.42911563  0.41035965  0.62091630    -0.00700
Br684      Br  0.46889118  0.42414551  0.67281730    -0.00700
C685        C  0.03124532  0.17276191  0.82169639    -0.01800
C686        C  0.03768505  0.17147608  0.84738785     0.07900
C687        C  0.06440587  0.17083535  0.85323404    -0.01900
C688        C  0.08308352  0.16984333  0.83355833    -0.01900
C689        C  0.07370568  0.16485475  0.80818858     0.08000
C690        C  0.04768283  0.16700866  0.80232269    -0.02100
Br691      Br  0.03287789  0.16121521  0.76855751    -0.00700
Br692      Br  0.50215265  0.18568381  0.81280641    -0.00700
Br693      Br  0.12228983  0.17703943  0.84122698    -0.00700
Br694      Br  0.07556949  0.16979649  0.88796597    -0.00700
C695        C  0.16112852  0.04205846  0.83038966    -0.01800
C696        C  0.15126218  0.04404772  0.85513667     0.07900
C697        C  0.14329830  0.06667928  0.86102453    -0.01900
C698        C  0.14460621  0.08582516  0.84185895    -0.01900
C699        C  0.14646588  0.07831628  0.81595364     0.08000
C700        C  0.15310562  0.05456287  0.81054328    -0.02100
Br701      Br  0.14790603  0.03563502  0.77767351    -0.00700
Br702      Br  0.19086028  0.52865431  0.82434235    -0.00700
Br703      Br  0.14770070  0.12328630  0.85173845    -0.00700
Br704      Br  0.13283274  0.07278611  0.89536486    -0.00700
C705        C  0.19299841  0.08080330  0.68107141    -0.01800
C706        C  0.16632256  0.07867432  0.69115097     0.07900
C707        C  0.14114294  0.05512487  0.68376214    -0.01900
C708        C  0.14209335  0.03863334  0.66255634    -0.01900
C709        C  0.16832417  0.03773252  0.65471685     0.08000
C710        C  0.19407279  0.05863193  0.66518310    -0.02100
Br711      Br  0.23094725  0.05790925  0.65737785    -0.00700
Br712      Br  0.22748035  0.11492657  0.68672339    -0.00700
Br713      Br  0.11113823  0.52938625  0.63923447    -0.00700
Br714      Br  0.10456134  0.04713816  0.70044667    -0.00700
C715        C  0.04241997  0.16245262  0.67618078    -0.01800
C716        C  0.04926586  0.16899220  0.65045449     0.07900
C717        C  0.07795540  0.17541608  0.64181021    -0.01900
C718        C  0.09911461  0.17724962  0.65926195    -0.01900
C719        C  0.09057513  0.16607103  0.68364586     0.08000
C720        C  0.06139691  0.15627171  0.69095801    -0.02100
Br721      Br  0.04570894  0.12870035  0.71733640    -0.00700
Br722      Br  0.01002420  0.16600543  0.69271775    -0.00700
Br723      Br  0.13929957  0.19362427  0.64938994    -0.00700
Br724      Br  0.08852178  0.17882083  0.60617778    -0.00700
C725        C  0.44092894  0.10318393  0.81779821    -0.01800
C726        C  0.45433721  0.08437249  0.81340117     0.07900
C727        C  0.47747600  0.08637890  0.82859706    -0.01900
C728        C  0.48706417  0.10696971  0.84822060    -0.01900
C729        C  0.47554760  0.12755780  0.85122863     0.08000
C730        C  0.45160098  0.12492088  0.83648633    -0.02100
Br731      Br  0.43315918  0.15088009  0.84145425    -0.00700
Br732      Br  0.40779379  0.09887910  0.79817725    -0.00700
Br733      Br  0.51335295  0.10457242  0.87282472    -0.00700
Br734      Br  0.49585615  0.06059372  0.82261257    -0.00700
C735        C  0.39475339  0.43247658  0.83234671    -0.01800
C736        C  0.37364104  0.43690548  0.81835875     0.07900
C737        C  0.34443406  0.42199901  0.82536435    -0.01900
C738        C  0.33620744  0.39960541  0.84302041    -0.01900
C739        C  0.35745786  0.39433297  0.85629243     0.08000
C740        C  0.38662399  0.41300317  0.85246331    -0.02100
Br741      Br  0.41524357  0.41396196  0.87620235    -0.00700
Br742      Br  0.43505584  0.45283970  0.82382721    -0.00700
Br743      Br  0.29577569  0.37537180  0.84735089    -0.00700
Br744      Br  0.31589045  0.43309148  0.81152075    -0.00700
C745        C  0.44789975  0.09183890  0.67485293    -0.01800
C746        C  0.46340577  0.07567698  0.68089589     0.07900
C747        C  0.49001956  0.08143652  0.66852608    -0.01900
C748        C  0.50049578  0.10262921  0.64972784    -0.01900
C749        C  0.48667746  0.12111223  0.64583070     0.08000
C750        C  0.46003949  0.11529817  0.65862469    -0.02100
Br751      Br  0.44106030  0.14092172  0.65672338    -0.00700
Br752      Br  0.41019820  0.08243287  0.68990745    -0.00700
Br753      Br  0.53250442  0.10469089  0.62842354    -0.00700
Br754      Br  0.51283509  0.06134042  0.67820750    -0.00700
C755        C  0.37215235  0.37929971  0.67388690    -0.01800
C756        C  0.36499127  0.38332089  0.64903742     0.07900
C757        C  0.36320992  0.40961930  0.64377116    -0.01900
C758        C  0.36753267  0.43014264  0.66329705    -0.01900
C759        C  0.38043074  0.42804742  0.68608716     0.08000
C760        C  0.38418969  0.40287036  0.69041255    -0.02100
Br761      Br  0.40848298  0.40142140  0.71701738    -0.00700
Br762      Br  0.36150970  0.34167532  0.68711245    -0.00700
Br763      Br  0.35572115  0.46091816  0.65879600    -0.00700
Br764      Br  0.35774936  0.41981412  0.60987177    -0.00700
C765        C  0.46192515  0.16406886  0.55462591    -0.01800
C766        C  0.46922360  0.17748217  0.57861059     0.07900
C767        C  0.45280303  0.19178869  0.58905516    -0.01900
C768        C  0.42901106  0.19170638  0.57573741    -0.01900
C769        C  0.42343268  0.17979599  0.55102347     0.08000
C770        C  0.44190436  0.16866037  0.53986363    -0.02100
Br771      Br  0.44088004  0.16100766  0.50394800    -0.00700
Br772      Br  0.47238529  0.13352362  0.54420964    -0.00700
Br773      Br  0.40290130  0.20564670  0.59200072    -0.00700
Br774      Br  0.46015453  0.20793293  0.62294776    -0.00700
C775        C  0.30232804  0.06221695  0.45307154    -0.01800
C776        C  0.32717276  0.08051416  0.46637214     0.07900
C777        C  0.35258681  0.07597765  0.46344770    -0.01900
C778        C  0.35304902  0.05321955  0.44836957    -0.01900
C779        C  0.32834136  0.03503036  0.43491864     0.08000
C780        C  0.30327458  0.04030468  0.43678451    -0.02100
Br781      Br  0.27102125  0.01961027  0.41539196    -0.00700
Br782      Br  0.26638865  0.06609011  0.45763854    -0.00700
Br783      Br  0.38835195  0.04754611  0.44577064    -0.00700
Br784      Br  0.38786164  0.10201061  0.47856411    -0.00700
C785        C  0.25269469  0.04838059  0.54496368    -0.01800
C786        C  0.25008504  0.07435806  0.54114320     0.07900
C787        C  0.22458026  0.07660739  0.54906110    -0.01900
C788        C  0.20240772  0.05328599  0.56085030    -0.01900
C789        C  0.20776690  0.02994746  0.56966932     0.08000
C790        C  0.23332725  0.02772798  0.56129510    -0.02100
Br791      Br  0.24573186  0.00050721  0.57522351    -0.00700
Br792      Br  0.28355283  0.04135316  0.52854838    -0.00700
Br793      Br  0.16541030  0.55471220  0.56667614    -0.00700
Br794      Br  0.22168085  0.11281503  0.54805519    -0.00700
C795        C  0.43025918  0.23671066  0.43301877    -0.01800
C796        C  0.41977234  0.24661722  0.45438074     0.07900
C797        C  0.43322648  0.27566180  0.46122322    -0.01900
C798        C  0.45300739  0.29536924  0.44439444    -0.01900
C799        C  0.46415046  0.28584795  0.42298339     0.08000
C800        C  0.45282604  0.25602900  0.41781774    -0.02100
Br801      Br  0.46507402  0.24155375  0.38799042    -0.00700
Br802      Br  0.41281975  0.19653341  0.42432967    -0.00700
Br803      Br  0.45806819  0.33446313  0.44749253    -0.00700
Br804      Br  0.42444438  0.28849860  0.49360759    -0.00700
C805        C  0.21668897  0.13895654  0.45873708    -0.01800
C806        C  0.24379437  0.16069283  0.45248613     0.07900
C807        C  0.24529211  0.18134006  0.43456126    -0.01900
C808        C  0.22005116  0.18151068  0.42444868    -0.01900
C809        C  0.19269015  0.16098331  0.43185592     0.08000
C810        C  0.19137147  0.13882247  0.44822528    -0.02100
Br811      Br  0.15537032  0.10618976  0.45433297    -0.00700
Br812      Br  0.21381899  0.10862270  0.48100479    -0.00700
Br813      Br  0.22375240  0.20717401  0.39717684    -0.00700
Br814      Br  0.28226687  0.20764231  0.42125183    -0.00700
C815        C  0.32833567  0.26900474  0.57460867    -0.01800
C816        C  0.34184114  0.29801089  0.56754364     0.07900
C817        C  0.35397107  0.30447879  0.54295085    -0.01900
C818        C  0.34977603  0.28259134  0.52486010    -0.01900
C819        C  0.33864425  0.25375147  0.53247781     0.08000
C820        C  0.32734224  0.24706502  0.55740696    -0.02100
Br821      Br  0.30912346  0.20772935  0.56777251    -0.00700
Br822      Br  0.31372175  0.25920821  0.60872877    -0.00700
Br823      Br  0.35935686  0.29312534  0.48976000    -0.00700
Br824      Br  0.38133058  0.34247979  0.53514669    -0.00700
C825        C  0.23839409  0.05781116  0.91679603    -0.01800
C826        C  0.21004162  0.04361013  0.92662454     0.07900
C827        C  0.20344998  0.05216892  0.95070926    -0.01900
C828        C  0.22548931  0.07054661  0.96634032    -0.01900
C829        C  0.25273220  0.08674892  0.95576186     0.08000
C830        C  0.25928639  0.08016285  0.93093409    -0.02100
Br831      Br  0.29668412  0.10234357  0.91620098    -0.00700
Br832      Br  0.24747889  0.04996246  0.88249896    -0.00700
Br833      Br  0.21774313  0.07397157  0.00190267    -0.00700
Br834      Br  0.16503144  0.04820661  0.95878734    -0.00700
C835        C  0.23292157  0.17592787  0.08206812    -0.01800
C836        C  0.20350190  0.16279744  0.07539663     0.07900
C837        C  0.19612364  0.14622337  0.05294973    -0.01900
C838        C  0.21724958  0.14776933  0.03479711    -0.01900
C839        C  0.24677593  0.16090500  0.04095288     0.08000
C840        C  0.25447768  0.17500931  0.06487564    -0.02100
Br841      Br  0.29456937  0.19578063  0.07294932    -0.00700
Br842      Br  0.24368453  0.19279939  0.11539978    -0.00700
Br843      Br  0.20456833  0.13354614  0.00101570    -0.00700
Br844      Br  0.15793030  0.11642414  0.04955917    -0.00700
C845        C  0.43063350  0.15770333  0.96645593    -0.01800
C846        C  0.41469290  0.17438335  0.96205248     0.07900
C847        C  0.42165260  0.19146540  0.93999934    -0.01900
C848        C  0.44456607  0.19268241  0.92368985    -0.01900
C849        C  0.46032274  0.17632136  0.92851695     0.08000
C850        C  0.45102010  0.15671177  0.94846775    -0.02100
Br851      Br  0.46198583  0.12488361  0.94886320    -0.00700
Br852      Br  0.42757350  0.13736994  0.99768810    -0.00700
Br853      Br  0.45135231  0.21334239  0.89239180    -0.00700
Br854      Br  0.39933186  0.21230549  0.93063487    -0.00700
C855        C  0.30463995  0.06419225  0.06874043    -0.01800
C856        C  0.32230207  0.07493016  0.04715516     0.07900
C857        C  0.33876161  0.06054836  0.03735710    -0.01900
C858        C  0.34132006  0.03879202  0.05125492    -0.01900
C859        C  0.32359292  0.02763474  0.07281578     0.08000
C860        C  0.30493580  0.04032524  0.08126852    -0.02100
Br861      Br  0.28390120  0.02884461  0.11280815    -0.00700
Br862      Br  0.28285134  0.08420813  0.08306081    -0.00700
Br863      Br  0.37407124  0.03001932  0.04402663    -0.00700
Br864      Br  0.35909838  0.07155017  0.00523543    -0.00700
C865        C  0.44064668  0.24260886  0.06595748    -0.01800
C866        C  0.42919454  0.24752077  0.04320472     0.07900
C867        C  0.44149187  0.27490672  0.03268511    -0.01900
C868        C  0.46189978  0.29796022  0.04650005    -0.01900
C869        C  0.47363900  0.29331754  0.06926283     0.08000
C870        C  0.46319615  0.26509704  0.07838698    -0.02100
Br871      Br  0.47681215  0.25759308  0.11011928    -0.00700
Br872      Br  0.42388036  0.20561019  0.08188090    -0.00700
Br873      Br  0.96839572  0.33579617  0.03651881    -0.00700
Br874      Br  0.43138360  0.28066500  0.99883688    -0.00700
C875        C  0.34881665  0.28468082  0.96379682    -0.01800
C876        C  0.33334615  0.25589898  0.95679361     0.07900
C877        C  0.31685380  0.24922616  0.93442710    -0.01900
C878        C  0.31557958  0.27113655  0.91950147    -0.01900
C879        C  0.33118600  0.30016319  0.92644457     0.08000
C880        C  0.34934720  0.30654615  0.94780936    -0.02100
Br881      Br  0.37939622  0.34405995  0.95261144    -0.00700
Br882      Br  0.36806175  0.29426438  0.99596292    -0.00700
Br883      Br  0.29505279  0.26112949  0.88789223    -0.00700
Br884      Br  0.29717099  0.20988352  0.92329907    -0.00700
O885        O  0.35546566  0.62050960  0.03560083    -0.80800
O886        O  0.35526500  0.72889897  0.97862214    -0.65500
O887        O  0.34641207  0.66964211  0.02617282    -1.12100
C888        C  0.27186465  0.61358273  0.96860534     1.06000
O889        O  0.30832801  0.71509594  0.98131501    -0.78700
O890        O  0.26747813  0.66810249  0.99968383    -0.66300
Ni891      Ni  0.37844376  0.66051565  0.03135780     1.34900
C892        C  0.26889606  0.66014214  0.02200548     0.84800
O893        O  0.38280902  0.72746255  0.02286716    -0.79300
O894        O  0.40616165  0.69974801  0.02917238    -0.89600
C895        C  0.33263493  0.73243397  0.97317720     0.84400
O896        O  0.38160918  0.65366943  0.99610350    -0.67800
O897        O  0.27440626  0.63698407  0.95875926    -0.87000
C898        C  0.39149867  0.67385473  0.98057508     0.85200
C899        C  0.40452467  0.72376449  0.03095031     1.06800
H900        H  0.33230598  0.66450881  0.96933378     0.38600
O901        O  0.32335755  0.66980203  0.98377114    -1.09700
O902        O  0.28771731  0.65107074  0.02825027    -0.66400
Ni903      Ni  0.31494153  0.64077963  0.00824429     1.26300
O904        O  0.38319830  0.69420137  0.98196484    -0.66600
O905        O  0.28442366  0.61228097  0.98891566    -0.78900
C906        C  0.32896767  0.60402517  0.03793316     0.84600
O907        O  0.30918265  0.61176093  0.03242430    -0.66100
Ni908      Ni  0.29215574  0.67603458  0.97044591     1.27400
Ni909      Ni  0.35296537  0.69964918  0.00243212     1.26100
H910        H  0.33988284  0.67438192  0.04245898     0.39100
O911        O  0.28791553  0.68873060  0.47205289    -0.80800
O912        O  0.38769589  0.69256004  0.53342046    -0.65500
O913        O  0.33464628  0.67631342  0.47954934    -1.12100
C914        C  0.27578926  0.59950697  0.53223180     1.06000
O915        O  0.38060832  0.64712410  0.53236409    -0.78700
O916        O  0.33833828  0.60511361  0.50596833    -0.66300
Ni917      Ni  0.32834214  0.70582437  0.46381186     1.34900
C918        C  0.32625297  0.60284672  0.48469646     0.84800
O919        O  0.39195581  0.71579698  0.48748226    -0.79300
O920        O  0.36882056  0.72458407  0.45499669    -0.89600
C921        C  0.39561401  0.67302393  0.53875532     0.84400
O922        O  0.33298423  0.73109464  0.49203639    -0.67800
O923        O  0.29956170  0.60294676  0.54227191    -0.87000
C924        C  0.34034418  0.73126530  0.51484352     0.85200
C925        C  0.39186937  0.72788886  0.46653126     1.06800
H926        H  0.32409663  0.66340027  0.53723487     0.38600
O927        O  0.33095660  0.65550317  0.52314037    -1.09700
O928        O  0.31308007  0.61822304  0.47887005    -0.66400
Ni929      Ni  0.30338440  0.64658917  0.49679681     1.26300
O930        O  0.34981486  0.71359759  0.52289698    -0.66600
O931        O  0.27361339  0.61587047  0.51514286    -0.78900
C932        C  0.27066532  0.66372194  0.46535574     0.84600
O933        O  0.27623330  0.64239059  0.47040916    -0.66100
Ni934      Ni  0.33957660  0.62613349  0.53662279     1.27400
Ni935      Ni  0.36157830  0.68598554  0.50617260     1.26100
H936        H  0.34171020  0.66756766  0.46619017     0.39100
N937        N  0.41958027  0.50422321  0.71048865    -0.36600
N938        N  0.39016451  0.96346189  0.75091616    -0.57100
N939        N  0.41332081  0.50923232  0.78840082    -0.36600
N940        N  0.44399928  0.54973028  0.74816469    -0.57100
C941        C  0.41159460  0.97910986  0.69749523     0.27000
C942        C  0.43864433  0.52493911  0.69563885     0.27000
C943        C  0.39831658  0.98754390  0.80423282     0.27000
C944        C  0.42508509  0.53336398  0.80269163     0.27000
C945        C  0.37886888  0.94652760  0.73040192     0.35600
C946        C  0.37667173  0.94852738  0.77172957     0.35600
C947        C  0.45444801  0.56546288  0.72710666     0.35600
C948        C  0.45069474  0.56826663  0.76812386     0.35600
C949        C  0.42588538  0.98404930  0.67413876    -0.21800
C950        C  0.44222728  0.51294337  0.67270874    -0.21800
C951        C  0.40043017  0.99814396  0.82892463    -0.21800
C952        C  0.41716312  0.52695135  0.82795621    -0.21800
C953        C  0.35723854  0.92095673  0.73820205    -0.22900
C954        C  0.35639837  0.92193593  0.76427052    -0.22900
C955        C  0.46830548  0.59409681  0.73380783    -0.22900
C956        C  0.46602991  0.59584447  0.75970265    -0.22900
C957        C  0.39027149  0.95218124  0.70523157    -0.18200
C958        C  0.45221162  0.55450234  0.70188480    -0.18200
C959        C  0.44293604  0.56109316  0.79389498    -0.18200
C960        C  0.38282709  0.95833302  0.79733035    -0.18200
H961        H  0.42423901  0.96856458  0.65928265     0.14700
H962        H  0.45541941  0.52373172  0.65659750     0.14700
H963        H  0.39076437  0.98637693  0.84593611     0.14700
H964        H  0.42287955  0.54147956  0.84414770     0.14700
H965        H  0.34429580  0.90283193  0.72645565     0.12900
H966        H  0.34249708  0.90474825  0.77619648     0.12900
H967        H  0.47891534  0.61193478  0.72136704     0.12900
H968        H  0.47415233  0.61531139  0.77099931     0.12900
H969        H  0.40999160  0.50752308  0.72711922     0.26200
H970        H  0.41657873  0.50755836  0.76917203     0.26200
N971        N  0.14134504  0.63676795  0.70930422    -0.36600
N972        N  0.15118553  0.60693725  0.75063049    -0.57100
N973        N  0.11902436  0.62711708  0.78566829    -0.36600
N974        N  0.10980761  0.65766139  0.74650693    -0.57100
C975        C  0.14747892  0.61659652  0.69672605     0.27000
C976        C  0.12330103  0.64294197  0.69464175     0.27000
C977        C  0.11879308  0.60368289  0.79679645     0.27000
C978        C  0.09579637  0.63108766  0.79442620     0.27000
C979        C  0.16932249  0.60413174  0.73284714     0.35600
C980        C  0.16030023  0.60264983  0.77333977     0.35600
C981        C  0.11251734  0.67373184  0.72607145     0.35600
C982        C  0.10150383  0.66991396  0.76622024     0.35600
C983        C  0.13472854  0.61142401  0.67303736    -0.21800
C984        C  0.11878725  0.62735163  0.67205057    -0.21800
C985        C  0.09462088  0.59202692  0.81248372    -0.21800
C986        C  0.08023712  0.60961335  0.81119971    -0.21800
C987        C  0.19062114  0.59863326  0.74432706    -0.22900
C988        C  0.18584481  0.59934243  0.77015559    -0.22900
C989        C  0.10689526  0.69718886  0.73297113    -0.22900
C990        C  0.10062468  0.69515528  0.75870493    -0.22900
C991        C  0.16331288  0.60208442  0.70673685    -0.18200
C992        C  0.11119405  0.66255040  0.70123261    -0.18200
C993        C  0.09051225  0.65536853  0.78910204    -0.18200
C994        C  0.14209533  0.59548274  0.79513266    -0.18200
H995        H  0.13586788  0.59699223  0.65821815     0.14700
H996        H  0.10533681  0.62723483  0.65641789     0.14700
H997        H  0.08865515  0.57355295  0.82441276     0.14700
H998        H  0.06099335  0.60729103  0.82179773     0.14700
H999        H  0.20719935  0.59357803  0.73531588     0.12900
H1000       H  0.19796986  0.59472668  0.78464134     0.12900
H1001       H  0.10540574  0.71286445  0.72039562     0.12900
H1002       H  0.09374860  0.70916324  0.76995642     0.12900
H1003       H  0.14966695  0.64650636  0.72666423     0.26200
H1004       H  0.13640937  0.64184593  0.77552746     0.26200
N1005       N  0.00257578  0.90281587  0.78932471    -0.36600
N1006       N  0.46513484  0.87429392  0.74700974    -0.57100
N1007       N  0.01406309  0.89745759  0.71285351    -0.36600
N1008       N  0.05162872  0.92567719  0.75490603    -0.57100
C1009       C  0.47603717  0.89611543  0.79972640     0.27000
C1010       C  0.02166049  0.92345119  0.80437243     0.27000
C1011       C  0.49418897  0.87983813  0.69659315     0.27000
C1012       C  0.04002689  0.90507702  0.70123709     0.27000
C1013       C  0.44616613  0.86271932  0.76629990     0.35600
C1014       C  0.45146768  0.86248424  0.72514966     0.35600
C1015       C  0.06523483  0.93914095  0.77638154     0.35600
C1016       C  0.07014721  0.93713318  0.73515068     0.35600
C1017       C  0.47837377  0.91307327  0.82117301    -0.21800
C1018       C  0.00701108  0.93041125  0.82397733    -0.21800
C1019       C  0.50755267  0.87576877  0.67463358    -0.21800
C1020       C  0.03659182  0.89121764  0.67777451    -0.21800
C1021       C  0.42085787  0.84210668  0.75667054    -0.22900
C1022       C  0.42375175  0.84290043  0.73063804    -0.22900
C1023       C  0.09281646  0.95865321  0.76962205    -0.22900
C1024       C  0.09511959  0.95850817  0.74389515    -0.22900
C1025       C  0.44996350  0.87359450  0.79168632    -0.18200
C1026       C  0.05201715  0.93622777  0.80121461    -0.18200
C1027       C  0.06596193  0.92728794  0.70954651    -0.18200
C1028       C  0.46414431  0.86836729  0.70047863    -0.18200
H1029       H  0.46123960  0.91258162  0.83387511     0.14700
H1030       H  0.01606462  0.94623741  0.83893152     0.14700
H1031       H  0.49737096  0.86309757  0.65804312     0.14700
H1032       H  0.05317812  0.89324308  0.66379080     0.14700
H1033       H  0.40157952  0.82903990  0.76712479     0.12900
H1034       H  0.40737130  0.83002135  0.71746062     0.12900
H1035       H  0.11009659  0.97309882  0.78082193     0.12900
H1036       H  0.11376192  0.97233457  0.73313453     0.12900
H1037       H  0.00761563  0.89160973  0.77468071     0.26200
H1038       H  0.00971322  0.90713759  0.72898243     0.26200
C1039       C  0.49107546  0.67351406  0.59430294     0.02300
C1040       C  0.01916129  0.69502821  0.59712070     0.02300
C1041       C  0.03567555  0.69364764  0.61732158    -0.18200
C1042       C  0.02724023  0.66952984  0.63256541     0.02300
C1043       C  0.49953703  0.64664278  0.62887085     0.02300
C1044       C  0.48211841  0.64924115  0.60952709    -0.18200
H1045       H  0.46078605  0.63248636  0.60676660     0.04300
H1046       H  0.05667084  0.71101745  0.62004207     0.04300
C1047       C  0.18997555  0.51311497  0.59169518     0.02300
C1048       C  0.17576166  0.98265598  0.59327795     0.02300
C1049       C  0.15728280  0.97091571  0.61410618    -0.18200
C1050       C  0.15356116  0.98773963  0.63394036     0.02300
C1051       C  0.16938346  0.51779831  0.63367558     0.02300
C1052       C  0.18697164  0.52967321  0.61242508    -0.18200
H1053       H  0.19832584  0.55272185  0.61179989     0.04300
H1054       H  0.14521940  0.94792592  0.61486650     0.04300
C1055       C  0.33435367  0.82309492  0.90799989     0.02300
C1056       C  0.32225682  0.84356297  0.91128746     0.02300
C1057       C  0.33052938  0.86638786  0.89421297    -0.18200
C1058       C  0.34947384  0.86909366  0.87352763     0.02300
C1059       C  0.36050155  0.84781429  0.86976444     0.02300
C1060       C  0.35208128  0.82504753  0.88670480    -0.18200
H1061       H  0.36018334  0.80873402  0.88365762     0.04300
H1062       H  0.32204311  0.88241550  0.89717097     0.04300
C1063       C  0.34783840  0.82117288  0.58720658     0.02300
C1064       C  0.32918783  0.83492596  0.59286421     0.02300
C1065       C  0.33487627  0.85330779  0.61405390    -0.18200
C1066       C  0.35965674  0.86069042  0.62870008     0.02300
C1067       C  0.37880433  0.84728152  0.62284745     0.02300
C1068       C  0.37260686  0.82818613  0.60192209    -0.18200
H1069       H  0.38714298  0.81819592  0.59715723     0.04300
H1070       H  0.31977028  0.86260135  0.61892204     0.04300
C1071       C  0.18626741  0.52585194  0.90948203     0.02300
C1072       C  0.17176562  0.99567413  0.91017608     0.02300
C1073       C  0.14815161  0.98145152  0.89421273    -0.18200
C1074       C  0.13838034  0.99629463  0.87746527     0.02300
C1075       C  0.15497291  0.52638486  0.87536737     0.02300
C1076       C  0.17787478  0.54050245  0.89175190    -0.18200
H1077       H  0.18985598  0.56345210  0.89032692     0.04300
H1078       H  0.13785325  0.95834934  0.89444021     0.04300
C1079       C  0.48172259  0.67490659  0.90937313     0.02300
C1080       C  0.01106912  0.69493904  0.90787214     0.02300
C1081       C  0.02775761  0.69344262  0.88680122    -0.18200
C1082       C  0.01731031  0.67202315  0.86810515     0.02300
C1083       C  0.48833551  0.65148416  0.87002761     0.02300
C1084       C  0.47116550  0.65332246  0.89060823    -0.18200
H1085       H  0.44902455  0.63771822  0.89200044     0.04300
H1086       H  0.04972665  0.70935814  0.88502802     0.04300
O1087       O  0.12191120  0.85541376  0.46808471    -0.80800
O1088       O  0.22677967  0.85305106  0.53079921    -0.65500
O1089       O  0.17024126  0.84484157  0.48032625    -1.12100
C1090       C  0.10814489  0.77387389  0.53668113     1.06000
O1091       O  0.21131240  0.80612997  0.53216330    -0.78700
O1092       O  0.16522693  0.76737503  0.51055149    -0.66300
Ni1093     Ni  0.16256284  0.87707970  0.47293774     1.34900
C1094       C  0.15815594  0.76793543  0.48773700     0.84800
O1095       O  0.22861957  0.87864039  0.48517029    -0.79300
O1096       O  0.20254883  0.90296418  0.47526807    -0.89600
C1097       C  0.22988315  0.83086193  0.53776735     0.84400
O1098       O  0.15539941  0.88348269  0.50760791    -0.67800
O1099       O  0.13054803  0.77552704  0.54818658    -0.87000
C1100       C  0.17513403  0.89215046  0.52392309     0.85200
C1101       C  0.22611311  0.89995772  0.47521109     1.06800
H1102       H  0.16155527  0.83312352  0.53744015     0.38600
O1103       O  0.16711722  0.82328058  0.52397211    -1.09700
O1104       O  0.14937996  0.78642747  0.48027467    -0.66400
Ni1105     Ni  0.13953716  0.81516544  0.49770931     1.26300
O1106       O  0.19443843  0.88233458  0.52411929    -0.66600
O1107       O  0.10880767  0.78655746  0.51612212    -0.78900
C1108       C  0.10564996  0.82917505  0.46443167     0.84600
O1109       O  0.11265988  0.80950956  0.47136181    -0.66100
Ni1110     Ni  0.17091317  0.79199953  0.53952340     1.27400
Ni1111     Ni  0.19887898  0.85083706  0.50554491     1.26100
H1112       H  0.17541396  0.83762350  0.46474142     0.39100
O1113       O  0.19171769  0.79162007  0.01791049    -0.80800
O1114       O  0.19516760  0.89396354  0.96756945    -0.65500
O1115       O  0.17600180  0.83602997  0.01671658    -1.12100
C1116       C  0.09703629  0.78478623  0.96648080     1.06000
O1117       O  0.14954645  0.88809506  0.96533666    -0.78700
O1118       O  0.12056270  0.85374239  0.00326369    -0.66300
Ni1119     Ni  0.20582604  0.82947275  0.03195603     1.34900
C1120       C  0.10874529  0.83298145  0.01798525     0.84800
O1121       O  0.21734594  0.89254668  0.01247751    -0.79300
O1122       O  0.22130585  0.86778194  0.04573599    -0.89600
C1123       C  0.17636541  0.90311509  0.96230829     0.84400
O1124       O  0.23460141  0.84052474  0.00574548    -0.67800
O1125       O  0.09625345  0.80922502  0.96830000    -0.87000
C1126       C  0.23355645  0.84594085  0.98257809     0.85200
C1127       C  0.22699072  0.89127395  0.03438442     1.06800
H1128       H  0.16224264  0.83273943  0.95747676     0.38600
O1129       O  0.15554195  0.83736923  0.97352097    -1.09700
O1130       O  0.11609114  0.81189759  0.01675556    -0.66400
Ni1131     Ni  0.14721077  0.80673676  0.99682807     1.26300
O1132       O  0.21391059  0.85277827  0.97420037    -0.66600
O1133       O  0.11792247  0.78000346  0.97516689    -0.78900
C1134       C  0.16733267  0.77273781  0.02419462     0.84600
O1135       O  0.14445705  0.77630742  0.01951366    -0.66100
Ni1136     Ni  0.12491680  0.84819918  0.96790652     1.27400
Ni1137     Ni  0.18693322  0.86505854  0.99227735     1.26100
H1138       H  0.16636716  0.84158599  0.03042366     0.39100
N1139       N  0.49245904  0.59591583  0.21297368    -0.36600
N1140       N  0.44893060  0.57031814  0.25166411    -0.57100
N1141       N  0.49131008  0.59953113  0.28970035    -0.36600
N1142       N  0.03508450  0.62712485  0.25077286    -0.57100
C1143       C  0.46759787  0.58959092  0.20052778     0.27000
C1144       C  0.01365461  0.61644957  0.19973604     0.27000
C1145       C  0.46709642  0.58813599  0.30427303     0.27000
C1146       C  0.01245075  0.61811973  0.30451421     0.27000
C1147       C  0.43427084  0.55627542  0.23105107     0.35600
C1148       C  0.43433996  0.55556229  0.27197155     0.35600
C1149       C  0.05192782  0.62710762  0.23038152     0.35600
C1150       C  0.05189060  0.63281771  0.27155971     0.35600
C1151       C  0.47267501  0.60683726  0.17965103    -0.21800
C1152       C  0.00165207  0.62422281  0.17942596    -0.21800
C1153       C  0.47270820  0.59995279  0.32848514    -0.21800
C1154       C  0.00130240  0.61804479  0.32888397    -0.21800
C1155       C  0.41007655  0.53252993  0.23813904    -0.22900
C1156       C  0.41019492  0.53192683  0.26421418    -0.22900
C1157       C  0.07910096  0.63183106  0.23838003    -0.22900
C1158       C  0.07980151  0.63787144  0.26383370    -0.22900
C1159       C  0.44121621  0.56664950  0.20629578    -0.18200
C1160       C  0.04334405  0.62521541  0.20464957    -0.18200
C1161       C  0.04209028  0.63169218  0.29742584    -0.18200
C1162       C  0.44104421  0.56500306  0.29729461    -0.18200
H1163       H  0.45718444  0.60659495  0.16582180     0.14700
H1164       H  0.01213087  0.64004338  0.16536826     0.14700
H1165       H  0.45818561  0.59476569  0.34473421     0.14700
H1166       H  0.01239023  0.62849653  0.34589760     0.14700
H1167       H  0.39360588  0.51796084  0.22583352     0.12900
H1168       H  0.39377670  0.51662481  0.27611240     0.12900
H1169       H  0.09718204  0.63246248  0.22693507     0.12900
H1170       H  0.09883595  0.64409502  0.27515760     0.12900
H1171       H  0.49555417  0.58405506  0.22750080     0.26200
H1172       H  0.49433637  0.59199325  0.27191484     0.26200
N1173       N  0.37677370  0.86889785  0.28710602    -0.36600
N1174       N  0.36304891  0.90500247  0.25473685    -0.57100
N1175       N  0.37243145  0.87301399  0.21269518    -0.36600
N1176       N  0.38396254  0.83395842  0.24470448    -0.57100
C1177       C  0.36446193  0.88096521  0.30395162     0.27000
C1178       C  0.37862161  0.84649177  0.29841809     0.27000
C1179       C  0.35887078  0.88749964  0.20172097     0.27000
C1180       C  0.37305608  0.85319858  0.19569711     0.27000
C1181       C  0.36869763  0.92048649  0.27651368     0.35600
C1182       C  0.36672655  0.92334041  0.23574979     0.35600
C1183       C  0.39834694  0.82745773  0.26307634     0.35600
C1184       C  0.39382780  0.82773371  0.22232735     0.35600
C1185       C  0.35706181  0.86502771  0.32594878    -0.21800
C1186       C  0.36686168  0.84374475  0.32270981    -0.21800
C1187       C  0.34925650  0.87562052  0.17798885    -0.21800
C1188       C  0.35927928  0.85485226  0.17377725    -0.21800
C1189       C  0.37587143  0.94896641  0.27140763    -0.22900
C1190       C  0.37467090  0.95075764  0.24541395    -0.22900
C1191       C  0.41591634  0.81543205  0.25239988    -0.22900
C1192       C  0.41229113  0.81468752  0.22666140    -0.22900
C1193       C  0.36406015  0.90815868  0.30079639    -0.18200
C1194       C  0.39645458  0.83330956  0.28924630    -0.18200
C1195       C  0.39034669  0.83794824  0.19837070    -0.18200
C1196       C  0.36096067  0.91462796  0.21016661    -0.18200
H1197       H  0.34774911  0.86961199  0.34322271     0.14700
H1198       H  0.36668222  0.82883197  0.33695556     0.14700
H1199       H  0.33871156  0.88305819  0.16408442     0.14700
H1200       H  0.35756191  0.84366552  0.15597136     0.14700
H1201       H  0.38087918  0.96636996  0.28503627     0.12900
H1202       H  0.37858210  0.96976474  0.23484937     0.12900
H1203       H  0.43057464  0.80870247  0.26193265     0.12900
H1204       H  0.42386198  0.80757611  0.21265190     0.12900
H1205       H  0.38831217  0.87833785  0.27078598     0.26200
H1206       H  0.38555135  0.87983979  0.22850472     0.26200
C1207       C  0.33141737  0.51447871  0.41572773     0.02300
C1208       C  0.31823643  0.98410642  0.41757748     0.02300
C1209       C  0.32670593  0.96768418  0.40016608    -0.18200
C1210       C  0.34599248  0.98002002  0.38013549     0.02300
C1211       C  0.35848689  0.51005512  0.37784810     0.02300
C1212       C  0.35103865  0.52668786  0.39559747    -0.18200
H1213       H  0.36118678  0.54974603  0.39398552     0.04300
H1214       H  0.31673542  0.94457124  0.40132270     0.04300
N1215       N  0.08618821  0.99422599  0.28817895    -0.36600
N1216       N  0.05866185  0.95634075  0.24707037    -0.57100
N1217       N  0.07726041  0.00556261  0.21219047    -0.36600
N1218       N  0.10709448  0.54359358  0.25340937    -0.57100
C1219       C  0.08040012  0.96866812  0.29909103     0.27000
C1220       C  0.10590978  0.51482007  0.30266378     0.27000
C1221       C  0.06792255  0.98348165  0.19522070     0.27000
C1222       C  0.09169210  0.52986159  0.19896724     0.27000
C1223       C  0.04728968  0.93772849  0.26639820     0.35600
C1224       C  0.04460469  0.94325809  0.22572934     0.35600
C1225       C  0.11561568  0.55763565  0.27591668     0.35600
C1226       C  0.11105409  0.56367718  0.23558684     0.35600
C1227       C  0.09720237  0.97320014  0.32049364    -0.21800
C1228       C  0.11303178  0.50228804  0.32288464    -0.21800
C1229       C  0.07611246  0.99393049  0.17092521    -0.21800
C1230       C  0.09068601  0.52307170  0.17323973    -0.21800
C1231       C  0.02549029  0.91295820  0.25726443    -0.22900
C1232       C  0.02465193  0.91613730  0.23150067    -0.22900
C1233       C  0.12594640  0.58679430  0.27194947    -0.22900
C1234       C  0.12313449  0.59059769  0.24658490    -0.22900
C1235       C  0.05850020  0.94181607  0.29143835    -0.18200
C1236       C  0.11495650  0.54470417  0.29985222    -0.18200
C1237       C  0.10500778  0.55816057  0.20928873    -0.17000
C1238       C  0.05095352  0.95429345  0.20071637    -0.18200
H1239       H  0.09731787  0.95728986  0.33353381     0.14700
H1240       H  0.12762108  0.51310469  0.33812705     0.14700
H1241       H  0.07163997  0.98187884  0.15321487     0.14700
H1242       H  0.09953293  0.53750541  0.15759818     0.14700
H1243       H  0.01257082  0.89394956  0.26771335     0.12900
H1244       H  0.01158118  0.89999370  0.21827472     0.12900
H1245       H  0.13476223  0.60375977  0.28581858     0.12900
H1246       H  0.12948750  0.61087986  0.23730599     0.12900
H1247       H  0.07434439  0.99802244  0.27405145     0.26200
H1248       H  0.07178468  0.00429099  0.23134822     0.26200
C1249       C  0.33062772  0.50925697  0.09037270     0.02300
C1250       C  0.31533764  0.97903114  0.09193858     0.02300
C1251       C  0.32295762  0.96469175  0.11086676    -0.18200
C1252       C  0.34436619  0.97950132  0.12853949     0.02300
C1253       C  0.35973766  0.50943425  0.12678389     0.02300
C1254       C  0.35297576  0.52374030  0.10746981    -0.18200
H1255       H  0.36452724  0.54675187  0.10636678     0.04300
H1256       H  0.31132758  0.94174014  0.11246458     0.04300
C1257       C  0.15463230  0.67774990  0.41499526     0.02300
C1258       C  0.16718773  0.65753187  0.41633134     0.02300
C1259       C  0.15854811  0.63452964  0.39902384    -0.18200
C1260       C  0.13886101  0.63086323  0.37980499     0.02300
C1261       C  0.12605036  0.65091292  0.37788167     0.02300
C1262       C  0.13490348  0.67411590  0.39539866    -0.18200
H1263       H  0.12709011  0.69047097  0.39345494     0.04300
H1264       H  0.16855970  0.61957654  0.39973361     0.04300
C1265       C  0.16154210  0.67730806  0.08290318     0.02300
C1266       C  0.17955849  0.66416288  0.09172103     0.02300
C1267       C  0.17085539  0.64720554  0.11400115    -0.18200
C1268       C  0.14332234  0.64033098  0.12576809     0.02300
C1269       C  0.12733445  0.65347956  0.11598590     0.02300
C1270       C  0.13574629  0.67190619  0.09579478    -0.18200
H1271       H  0.12251738  0.68294303  0.09073018     0.04300
H1272       H  0.18563891  0.63936058  0.12162350     0.04300
C1273       C  0.48109259  0.80666718  0.40282695     0.02300
C1274       C  0.01152477  0.82284298  0.40251287     0.02300
C1275       C  0.02424996  0.84306464  0.38320579    -0.18200
C1276       C  0.00795950  0.84753548  0.36391131     0.02300
C1277       C  0.47781558  0.82998825  0.36339284     0.02300
C1278       C  0.46506255  0.81064662  0.38316377    -0.18200
H1279       H  0.44192651  0.79831873  0.38325066     0.04300
H1280       H  0.04728352  0.85586789  0.38341972     0.04300
C1281       C  0.48858233  0.81772080  0.08741129     0.02300
C1282       C  0.01721841  0.83894082  0.08488069     0.02300
C1283       C  0.02592676  0.86310603  0.10128680    -0.18200
C1284       C  0.00797134  0.86617570  0.12103926     0.02300
C1285       C  0.47953093  0.84411024  0.12392705     0.02300
C1286       C  0.47141219  0.82009235  0.10768614    -0.18200
H1287       H  0.45049744  0.80264786  0.11048900     0.04300
H1288       H  0.04754459  0.87955763  0.09906483     0.04300
C1289       C  0.03624821  0.92137930  0.33447024    -0.01800
C1290       C  0.04711403  0.91741265  0.31036263     0.07900
C1291       C  0.04766805  0.89034969  0.30509596    -0.01900
C1292       C  0.03380731  0.86713601  0.32184349    -0.01900
C1293       C  0.02289385  0.87158126  0.34565690     0.08000
C1294       C  0.02803545  0.89983516  0.35284279    -0.02100
Br1295     Br  0.52703640  0.91007348  0.38828604    -0.00700
Br1296     Br  0.02958203  0.95493260  0.34218764    -0.00700
Br1297     Br  0.03189975  0.82976927  0.31329372    -0.00700
Br1298     Br  0.06895626  0.88532631  0.27604630    -0.00700
C1299       C  0.04562783  0.89506636  0.15333509    -0.01800
C1300       C  0.02075000  0.89125463  0.13926362     0.07900
C1301       C  0.00778754  0.91062934  0.14378371    -0.01900
C1302       C  0.01729218  0.93100837  0.16390929    -0.01900
C1303       C  0.04089910  0.93340455  0.17879081     0.08000
C1304       C  0.05557995  0.91606781  0.17277004    -0.02100
Br1305     Br  0.08922050  0.92076418  0.19188933    -0.00700
Br1306     Br  0.06474218  0.86967141  0.14855248    -0.00700
Br1307     Br  0.49760223  0.95528180  0.17159818    -0.00700
Br1308     Br  0.47782282  0.91021583  0.12185271    -0.00700
C1309       C  0.15098661  0.58446841  0.32683082    -0.01800
C1310       C  0.12282706  0.56333484  0.32350392     0.07900
C1311       C  0.10139553  0.56137415  0.34194556    -0.01900
C1312       C  0.10694999  0.58275622  0.36094222    -0.01900
C1313       C  0.13387032  0.60629096  0.36173105     0.08000
C1314       C  0.15653086  0.60595217  0.34573886    -0.02100
Br1315     Br  0.19474618  0.63636376  0.34786483    -0.00700
Br1316     Br  0.18183818  0.58423866  0.30504821    -0.00700
Br1317     Br  0.07750885  0.58025325  0.38566561    -0.00700
Br1318     Br  0.06348929  0.53071188  0.34041324    -0.00700
C1319       C  0.13923982  0.58840488  0.17690435    -0.01800
C1320       C  0.11420096  0.58300268  0.19090636     0.07900
C1321       C  0.09523915  0.59573524  0.18347638    -0.01900
C1322       C  0.10379409  0.61942689  0.16441227    -0.01900
C1323       C  0.13022393  0.62072208  0.14900230     0.08000
C1324       C  0.14288068  0.60155925  0.15374474    -0.02100
Br1325     Br  0.15541892  0.58368965  0.12600232    -0.00700
Br1326     Br  0.16513549  0.57134597  0.18594325    -0.00700
Br1327     Br  0.06558025  0.66490076  0.14901840    -0.00700
Br1328     Br  0.05685580  0.57274906  0.19746710    -0.00700
C1329       C  0.43763766  0.85700657  0.31863915    -0.01800
C1330       C  0.41806020  0.83163496  0.30707831     0.07900
C1331       C  0.41932222  0.80559748  0.31312477    -0.01900
C1332       C  0.44138280  0.80574621  0.32898540    -0.01900
C1333       C  0.45842691  0.83087683  0.34288285     0.08000
C1334       C  0.45385325  0.85564621  0.33912055    -0.02100
Br1335     Br  0.46039468  0.88365223  0.36566636    -0.00700
Br1336     Br  0.44453935  0.89402622  0.30564992    -0.00700
Br1337     Br  0.44756824  0.77138372  0.33172152    -0.00700
Br1338     Br  0.39041400  0.76990351  0.30076218    -0.00700
C1339       C  0.44183531  0.85641305  0.18382049    -0.01800
C1340       C  0.41247079  0.84097411  0.17811447     0.07900
C1341       C  0.40551819  0.82792519  0.15397439    -0.01900
C1342       C  0.42734626  0.83431774  0.13525537    -0.01900
C1343       C  0.45675991  0.84462208  0.14261652     0.08000
C1344       C  0.46282227  0.85272919  0.16836510    -0.02100
Br1345     Br  0.99390575  0.84878820  0.18531427    -0.00700
Br1346     Br  0.45337481  0.88170036  0.21303385    -0.00700
Br1347     Br  0.41588305  0.83035385  0.10013210    -0.00700
Br1348     Br  0.36826907  0.79764388  0.14752667    -0.00700
C1349       C  0.33279625  0.95290098  0.33871715    -0.01800
C1350       C  0.35006778  0.96062030  0.36051747     0.07900
C1351       C  0.36916424  0.94768335  0.36449641    -0.01900
C1352       C  0.37505501  0.93183077  0.34475189    -0.01900
C1353       C  0.35791796  0.92416934  0.32270024     0.08000
C1354       C  0.33540065  0.93333420  0.32081453    -0.02100
Br1355     Br  0.30724233  0.91840996  0.29421701    -0.00700
Br1356     Br  0.30456540  0.96803507  0.33360921    -0.00700
Br1357     Br  0.40799669  0.92295204  0.34786422    -0.00700
Br1358     Br  0.38505294  0.94901193  0.39765327    -0.00700
C1359       C  0.33635819  0.94416531  0.19253814    -0.01800
C1360       C  0.35860404  0.93446911  0.19090691     0.07900
C1361       C  0.37612385  0.94012175  0.16873493    -0.01900
C1362       C  0.36859036  0.95106867  0.14735564    -0.01900
C1363       C  0.34876846  0.96350578  0.14986804     0.08000
C1364       C  0.33261466  0.96006730  0.17259119    -0.02100
Br1365     Br  0.30328077  0.97453013  0.17532487    -0.00700
Br1366     Br  0.30952391  0.93405975  0.22085638    -0.00700
Br1367     Br  0.38061023  0.94320392  0.11415601    -0.00700
Br1368     Br  0.41027003  0.93259199  0.16717255    -0.00700
C1369       C  0.37283896  0.53972689  0.33830130    -0.01800
C1370       C  0.37966778  0.52471945  0.35735187     0.07900
C1371       C  0.40753325  0.52532531  0.35766902    -0.01900
C1372       C  0.42617910  0.53558944  0.33673066    -0.01900
C1373       C  0.41945639  0.55051859  0.31764482     0.08000
C1374       C  0.39319765  0.55359710  0.31912138    -0.02100
Br1375     Br  0.38576911  0.57806801  0.29573058    -0.00700
Br1376     Br  0.33652885  0.54314611  0.33926866    -0.00700
Br1377     Br  0.46103415  0.52936642  0.33450841    -0.00700
Br1378     Br  0.42288478  0.01891738  0.38873823    -0.00700
C1379       C  0.39532603  0.55775957  0.18349015    -0.01800
C1380       C  0.42047007  0.55296356  0.18553824     0.07900
C1381       C  0.42637917  0.53550272  0.16741293    -0.01900
C1382       C  0.40840987  0.52463971  0.14645516    -0.01900
C1383       C  0.38156169  0.52633084  0.14595223     0.08000
C1384       C  0.37542148  0.54372307  0.16423149    -0.02100
Br1385     Br  0.34041202  0.54934423  0.16256615    -0.00700
Br1386     Br  0.38822569  0.58342785  0.20715792    -0.00700
Br1387     Br  0.42320728  0.51255127  0.11675457    -0.00700
Br1388     Br  0.45748860  0.52417925  0.17243128    -0.00700
C1389       C  0.08292253  0.65962557  0.35978498    -0.01800
C1390       C  0.10465602  0.64878200  0.35741192     0.07900
C1391       C  0.10621137  0.63597262  0.33396154    -0.01900
C1392       C  0.08172225  0.62473890  0.31907737    -0.01900
C1393       C  0.06390167  0.63929127  0.31823017     0.08000
C1394       C  0.06651224  0.65913793  0.33816873    -0.02100
Br1395     Br  0.04832583  0.68530294  0.33619756    -0.00700
Br1396     Br  0.07086970  0.67026798  0.39190628    -0.00700
Br1397     Br  0.07113059  0.58847467  0.30214965    -0.00700
Br1398     Br  0.14208898  0.65237025  0.31570177    -0.00700
C1399       C  0.05562724  0.61286826  0.15558608    -0.01800
C1400       C  0.06522727  0.63062161  0.18280544     0.07900
C1401       C  0.09588397  0.65848215  0.18405394    -0.01900
C1402       C  0.11560755  0.66893925  0.15910636    -0.01900
C1403       C  0.10512214  0.65192671  0.13242503     0.08000
C1404       C  0.07565589  0.62365561  0.13067245    -0.02100
Br1405     Br  0.06591420  0.60251147  0.09918188    -0.00700
Br1406     Br  0.01988705  0.58021045  0.15006570    -0.00700
Br1407     Br  0.15194387  0.70165269  0.16064486    -0.00700
Br1408     Br  0.10434087  0.68760508  0.21027593    -0.00700
C1409       C  0.18621342  0.72874955  0.07170406    -0.01800
C1410       C  0.16937911  0.70040779  0.06363797     0.07900
C1411       C  0.15219349  0.69612111  0.04171527    -0.01900
C1412       C  0.15211541  0.71956344  0.02825621    -0.01900
C1413       C  0.16713821  0.74754116  0.03767273     0.08000
C1414       C  0.18468550  0.75202195  0.05917942    -0.02100
Br1415     Br  0.20489388  0.79017151  0.07313621    -0.00700
Br1416     Br  0.20830434  0.73600142  0.10229479    -0.00700
Br1417     Br  0.13209482  0.71337797  0.99652776    -0.00700
Br1418     Br  0.12569030  0.65836657  0.03156464    -0.00700
C1419       C  0.07809089  0.81933825  0.05889532    -0.01800
C1420       C  0.08473627  0.83328746  0.03521158     0.07900
C1421       C  0.06855977  0.84889740  0.02813660    -0.01900
C1422       C  0.04832940  0.85224292  0.04508068    -0.01900
C1423       C  0.03951387  0.83590887  0.06725382     0.08000
C1424       C  0.05530407  0.82018266  0.07446308    -0.02100
Br1425     Br  0.04867502  0.80317703  0.10749509    -0.00700
Br1426     Br  0.10135697  0.80083845  0.07128147    -0.00700
Br1427     Br  0.03670761  0.88296478  0.03964089    -0.00700
Br1428     Br  0.07169628  0.86472556  0.99457197    -0.00700
C1429       C  0.27383289  0.93420579  0.03548127    -0.01800
C1430       C  0.24693119  0.91810050  0.04685925     0.07900
C1431       C  0.24114734  0.92538345  0.07165158    -0.01900
C1432       C  0.26276479  0.94743902  0.08542486    -0.01900
C1433       C  0.29099473  0.96118600  0.07510819     0.08000
C1434       C  0.29648204  0.95309700  0.05040941    -0.02100
Br1435     Br  0.33496899  0.96047785  0.03932924    -0.00700
Br1436     Br  0.28015555  0.93024046  0.99961087    -0.00700
Br1437     Br  0.25421030  0.95595672  0.11962948    -0.00700
Br1438     Br  0.20336926  0.90520553  0.08654506    -0.00700
C1439       C  0.16767099  0.75190631  0.44350917    -0.01800
C1440       C  0.15993926  0.74561287  0.46940278     0.07900
C1441       C  0.15362093  0.71745407  0.47760056    -0.01900
C1442       C  0.15130838  0.69561391  0.45981691    -0.01900
C1443       C  0.15955830  0.70180400  0.43409638     0.08000
C1444       C  0.16793343  0.73043561  0.42617693    -0.02100
Br1445     Br  0.17864458  0.74075078  0.39114791    -0.00700
Br1446     Br  0.17971376  0.79044980  0.43153860    -0.00700
Br1447     Br  0.13128325  0.65664368  0.47027105    -0.00700
Br1448     Br  0.14761778  0.70736122  0.51316680    -0.00700
C1449       C  0.06182805  0.83833549  0.45859206    -0.01800
C1450       C  0.07778166  0.82233915  0.45179916     0.07900
C1451       C  0.06953656  0.80383731  0.43039952    -0.01900
C1452       C  0.04633333  0.80242054  0.41538591    -0.01900
C1453       C  0.03141917  0.81974401  0.42138794     0.08000
C1454       C  0.04041626  0.83868922  0.44246419    -0.02100
Br1455     Br  0.52887110  0.86978105  0.44640120    -0.00700
Br1456     Br  0.06956823  0.86043346  0.48998098    -0.00700
Br1457     Br  0.03852235  0.78048489  0.38411090    -0.00700
Br1458     Br  0.09185574  0.78275511  0.41988876    -0.00700
C1459       C  0.24627223  0.92656537  0.43592436    -0.01800
C1460       C  0.25029545  0.92217403  0.46157722     0.07900
C1461       C  0.27510542  0.94123180  0.47413188    -0.01900
C1462       C  0.29679027  0.96351476  0.46055077    -0.01900
C1463       C  0.29328984  0.96727859  0.43448130     0.08000
C1464       C  0.26725418  0.94915498  0.42265592    -0.02100
Br1465     Br  0.26030623  0.95416394  0.38757339    -0.00700
Br1466     Br  0.21217578  0.90061637  0.41833943    -0.00700
Br1467     Br  0.33137607  0.48784110  0.47769667    -0.00700
Br1468     Br  0.27877844  0.93722596  0.51002278    -0.00700
C1469       C  0.03818882  0.74672716  0.91831692    -0.01800
C1470       C  0.02656381  0.71821489  0.92678089     0.07900
C1471       C  0.03752815  0.71221175  0.94937403    -0.01900
C1472       C  0.05855462  0.73433137  0.96360428    -0.01900
C1473       C  0.07224688  0.76188174  0.95352462     0.08000
C1474       C  0.06168731  0.76799534  0.93079337    -0.02100
Br1475     Br  0.08107682  0.80471321  0.91477610    -0.00700
Br1476     Br  0.02452051  0.75615454  0.88740937    -0.00700
Br1477     Br  0.06765105  0.72707351  0.99734643    -0.00700
Br1478     Br  0.02858803  0.67367676  0.95883276    -0.00700
C1479       C  0.19738229  0.96392533  0.91664895    -0.01800
C1480       C  0.18026161  0.97760075  0.92672091     0.07900
C1481       C  0.16595780  0.96875798  0.95023458    -0.01900
C1482       C  0.17041416  0.94823940  0.96430642    -0.01900
C1483       C  0.18445563  0.93229377  0.95299898     0.08000
C1484       C  0.19895147  0.94082803  0.92953550    -0.02100
Br1485     Br  0.21784918  0.91880770  0.91370737    -0.00700
Br1486     Br  0.21439220  0.97330216  0.88318498    -0.00700
Br1487     Br  0.15495342  0.94011348  0.99851357    -0.00700
Br1488     Br  0.13437633  0.97816806  0.96033170    -0.00700
C1489       C  0.27574682  0.81594466  0.58658364    -0.01800
C1490       C  0.30391862  0.83204257  0.57732383     0.07900
C1491       C  0.30754308  0.85049777  0.55670928    -0.01900
C1492       C  0.28358248  0.84951749  0.54319658    -0.01900
C1493       C  0.25550811  0.83275390  0.55197951     0.08000
C1494       C  0.25173892  0.81636740  0.57408635    -0.02100
Br1495     Br  0.21365820  0.79581614  0.58844624    -0.00700
Br1496     Br  0.27000077  0.79606990  0.61826794    -0.00700
Br1497     Br  0.28947720  0.87020969  0.51198236    -0.00700
Br1498     Br  0.34437844  0.88101923  0.54962343    -0.00700
C1499       C  0.30711877  0.85865459  0.95319188    -0.01800
C1500       C  0.29969389  0.84153426  0.93091087     0.07900
C1501       C  0.27013647  0.82622197  0.92545725    -0.01900
C1502       C  0.24860366  0.82757092  0.94224986    -0.01900
C1503       C  0.25623719  0.84391197  0.96499984     0.08000
C1504       C  0.28579180  0.85755437  0.97117735    -0.02100
Br1505     Br  0.29802522  0.87356210  0.00462206    -0.00700
Br1506     Br  0.34563044  0.88749688  0.95744708    -0.00700
Br1507     Br  0.20852779  0.80490885  0.93510009    -0.00700
Br1508     Br  0.25890184  0.80590607  0.89356366    -0.00700
C1509       C  0.18734981  0.94023821  0.58305131    -0.01800
C1510       C  0.17849777  0.96141976  0.57455628     0.07900
C1511       C  0.16886257  0.95954972  0.54946500    -0.01900
C1512       C  0.16997987  0.93828925  0.53264290    -0.01900
C1513       C  0.17676644  0.91595893  0.54157449     0.08000
C1514       C  0.18543079  0.91713418  0.56700388    -0.02100
Br1515     Br  0.19319497  0.88645829  0.58062793    -0.00700
Br1516     Br  0.20277734  0.94293215  0.61677443    -0.00700
Br1517     Br  0.16419867  0.94168539  0.49689431    -0.00700
Br1518     Br  0.15081933  0.98371001  0.53862395    -0.00700
C1519       C  0.04685863  0.70662629  0.55616021    -0.01800
C1520       C  0.03494703  0.71596618  0.57718096     0.07900
C1521       C  0.04536796  0.74559349  0.58263506    -0.01900
C1522       C  0.06803796  0.76521133  0.56794416    -0.01900
C1523       C  0.07997450  0.75538294  0.54757192     0.08000
C1524       C  0.06767818  0.72648834  0.54041196    -0.02100
Br1525     Br  0.08108249  0.71399586  0.50990625    -0.00700
Br1526     Br  0.04171117  0.66746914  0.55260550    -0.00700
Br1527     Br  0.08394197  0.80545262  0.57627525    -0.00700
Br1528     Br  0.03217145  0.75905526  0.61263199    -0.00700
C1529       C  0.42915982  0.85281743  0.83460367    -0.01800
C1530       C  0.42531923  0.86266167  0.81067586     0.07900
C1531       C  0.39863526  0.86376963  0.80600292    -0.01900
C1532       C  0.37594799  0.85309170  0.82370898    -0.01900
C1533       C  0.38170642  0.84928459  0.84898635     0.08000
C1534       C  0.40866499  0.84872265  0.85431807    -0.02100
Br1535     Br  0.41944628  0.84525279  0.88863158    -0.00700
Br1536     Br  0.46291073  0.84589110  0.84084956    -0.00700
Br1537     Br  0.33698647  0.84177097  0.81257745    -0.00700
Br1538     Br  0.39380076  0.88431405  0.77809694    -0.00700
C1539       C  0.06807835  0.93880766  0.84874133    -0.01800
C1540       C  0.07019648  0.95081832  0.82408393     0.07900
C1541       C  0.09166810  0.97811759  0.82150749    -0.01900
C1542       C  0.11676321  0.98420633  0.83479831    -0.01900
C1543       C  0.11304276  0.97981818  0.86073501     0.08000
C1544       C  0.08775478  0.95538092  0.86808079    -0.02100
Br1545     Br  0.07933304  0.94492106  0.90315702    -0.00700
Br1546     Br  0.04075194  0.90062050  0.85608599    -0.00700
Br1547     Br  0.13890585  0.46414297  0.82136239    -0.00700
Br1548     Br  0.08083179  0.50790860  0.81181547    -0.00700
C1549       C  0.11770187  0.94455826  0.69229436    -0.01800
C1550       C  0.08905412  0.94202720  0.68994250     0.07900
C1551       C  0.08221663  0.95359838  0.66824400    -0.01900
C1552       C  0.10252788  0.96435231  0.64863864    -0.01900
C1553       C  0.13183094  0.97260343  0.65369636     0.08000
C1554       C  0.13948457  0.96251470  0.67573049    -0.02100
Br1555     Br  0.17941664  0.97198365  0.68234071    -0.00700
Br1556     Br  0.12705884  0.92251324  0.71685595    -0.00700
Br1557     Br  0.08944898  0.96431064  0.61439526    -0.00700
Br1558     Br  0.04626634  0.95721129  0.66544832    -0.00700
C1559       C  0.42895224  0.83411786  0.66917356    -0.01800
C1560       C  0.44554848  0.86225628  0.67748539     0.07900
C1561       C  0.44489773  0.88513403  0.66345610    -0.01900
C1562       C  0.42582108  0.87975429  0.64307496    -0.01900
C1563       C  0.40470911  0.85191918  0.63858710     0.08000
C1564       C  0.40755735  0.82878883  0.65076220    -0.02100
Br1565     Br  0.38057280  0.78979231  0.64505507    -0.00700
Br1566     Br  0.43585837  0.80305408  0.68294450    -0.00700
Br1567     Br  0.42911556  0.91035958  0.62091615    -0.00700
Br1568     Br  0.46889126  0.92414570  0.67281710    -0.00700
C1569       C  0.03124553  0.67276221  0.82169609    -0.01800
C1570       C  0.03768524  0.67147637  0.84738755     0.07900
C1571       C  0.06440610  0.67083573  0.85323376    -0.01900
C1572       C  0.08308378  0.66984376  0.83355806    -0.01900
C1573       C  0.07370597  0.66485515  0.80818831     0.08000
C1574       C  0.04768310  0.66700902  0.80232240    -0.02100
Br1575     Br  0.03287821  0.66121558  0.76855719    -0.00700
Br1576     Br  0.50215275  0.68568393  0.81280640    -0.00700
Br1577     Br  0.12229010  0.67703991  0.84122675    -0.00700
Br1578     Br  0.07556970  0.66979689  0.88796570    -0.00700
C1579       C  0.16112847  0.54205855  0.83038976    -0.01800
C1580       C  0.15126202  0.54404773  0.85513673     0.07900
C1581       C  0.14329806  0.56667924  0.86102459    -0.01900
C1582       C  0.14460603  0.58582517  0.84185902    -0.01900
C1583       C  0.14646586  0.57831639  0.81595371     0.08000
C1584       C  0.15310562  0.55456298  0.81054336    -0.02100
Br1585     Br  0.14790602  0.53563510  0.77767362    -0.00700
Br1586     Br  0.19086022  0.02865410  0.82434219    -0.00700
Br1587     Br  0.14770036  0.62328625  0.85173862    -0.00700
Br1588     Br  0.13283233  0.57278592  0.89536490    -0.00700
C1589       C  0.19299850  0.58080312  0.68107150    -0.01800
C1590       C  0.16632268  0.57867423  0.69115104     0.07900
C1591       C  0.14114302  0.55512482  0.68376220    -0.01900
C1592       C  0.14209339  0.53863326  0.66255641    -0.01900
C1593       C  0.16832419  0.53773237  0.65471693     0.08000
C1594       C  0.19407283  0.55863172  0.66518321    -0.02100
Br1595     Br  0.23094724  0.55790888  0.65737804    -0.00700
Br1596     Br  0.22748050  0.61492634  0.68672346    -0.00700
Br1597     Br  0.11113825  0.02938643  0.63923436    -0.00700
Br1598     Br  0.10456143  0.54713824  0.70044670    -0.00700
C1599       C  0.04242017  0.66245236  0.67618065    -0.01800
C1600       C  0.04926596  0.66899185  0.65045434     0.07900
C1601       C  0.07795548  0.67541572  0.64180998    -0.01900
C1602       C  0.09911479  0.67724945  0.65926168    -0.01900
C1603       C  0.09057543  0.66607102  0.68364567     0.08000
C1604       C  0.06139723  0.65627162  0.69095788    -0.02100
Br1605     Br  0.04570944  0.62870035  0.71733638    -0.00700
Br1606     Br  0.01002436  0.66600507  0.69271764    -0.00700
Br1607     Br  0.13929969  0.69362413  0.64938953    -0.00700
Br1608     Br  0.08852165  0.67882021  0.60617750    -0.00700
C1609       C  0.44092906  0.60318385  0.81779812    -0.01800
C1610       C  0.45433732  0.58437241  0.81340110     0.07900
C1611       C  0.47747610  0.58637880  0.82859700    -0.01900
C1612       C  0.48706428  0.60696964  0.84822053    -0.01900
C1613       C  0.47554769  0.62755772  0.85122855     0.08000
C1614       C  0.45160108  0.62492080  0.83648624    -0.02100
Br1615     Br  0.43315923  0.65087995  0.84145417    -0.00700
Br1616     Br  0.40779391  0.59887902  0.79817713    -0.00700
Br1617     Br  0.51335309  0.60457238  0.87282463    -0.00700
Br1618     Br  0.49585616  0.56059355  0.82261257    -0.00700
C1619       C  0.39475361  0.93247652  0.83234680    -0.01800
C1620       C  0.37364129  0.93690545  0.81835883     0.07900
C1621       C  0.34443429  0.92199898  0.82536441    -0.01900
C1622       C  0.33620765  0.89960534  0.84302044    -0.01900
C1623       C  0.35745804  0.89433284  0.85629244     0.08000
C1624       C  0.38662418  0.91300303  0.85246335    -0.02100
Br1625     Br  0.41524373  0.91396170  0.87620236    -0.00700
Br1626     Br  0.43505607  0.95283976  0.82382741    -0.00700
Br1627     Br  0.29577588  0.87537178  0.84735091    -0.00700
Br1628     Br  0.31589071  0.93309149  0.81152082    -0.00700
C1629       C  0.44789986  0.59183878  0.67485294    -0.01800
C1630       C  0.46340591  0.57567689  0.68089586     0.07900
C1631       C  0.49001976  0.58143656  0.66852611    -0.01900
C1632       C  0.50049600  0.60262935  0.64972796    -0.01900
C1633       C  0.48667764  0.62111234  0.64583087     0.08000
C1634       C  0.46003962  0.61529817  0.65862483    -0.02100
Br1635     Br  0.44106040  0.64092170  0.65672367    -0.00700
Br1636     Br  0.41019822  0.58243255  0.68990733    -0.00700
Br1637     Br  0.53250473  0.60469120  0.62842370    -0.00700
Br1638     Br  0.51283536  0.56134052  0.67820751    -0.00700
C1639       C  0.37215254  0.87929975  0.67388700    -0.01800
C1640       C  0.36499131  0.88332083  0.64903754     0.07900
C1641       C  0.36320980  0.90961917  0.64377129    -0.01900
C1642       C  0.36753250  0.93014252  0.66329717    -0.01900
C1643       C  0.38043071  0.92804743  0.68608724     0.08000
C1644       C  0.38418983  0.90287045  0.69041262    -0.02100
Br1645     Br  0.40848324  0.90142167  0.71701743    -0.00700
Br1646     Br  0.36151008  0.84167542  0.68711261    -0.00700
Br1647     Br  0.35572064  0.96091781  0.65879619    -0.00700
Br1648     Br  0.35774912  0.91981392  0.60987190    -0.00700
C1649       C  0.46192509  0.66406875  0.55462621    -0.01800
C1650       C  0.46922358  0.67748218  0.57861084     0.07900
C1651       C  0.45280300  0.69178870  0.58905536    -0.01900
C1652       C  0.42901101  0.69170633  0.57573760    -0.01900
C1653       C  0.42343262  0.67979586  0.55102368     0.08000
C1654       C  0.44190430  0.66866020  0.53986390    -0.02100
Br1655     Br  0.44087999  0.66100733  0.50394829    -0.00700
Br1656     Br  0.47238512  0.63352338  0.54421012    -0.00700
Br1657     Br  0.40290123  0.70564666  0.59200086    -0.00700
Br1658     Br  0.46015447  0.70793298  0.62294795    -0.00700
C1659       C  0.30232798  0.56221705  0.45307132    -0.01800
C1660       C  0.32717270  0.58051418  0.46637198     0.07900
C1661       C  0.35258677  0.57597774  0.46344741    -0.01900
C1662       C  0.35304897  0.55321968  0.44836922    -0.01900
C1663       C  0.32834130  0.53503051  0.43491830     0.08000
C1664       C  0.30327453  0.54030485  0.43678419    -0.02100
Br1665     Br  0.27102128  0.51961062  0.41539151    -0.00700
Br1666     Br  0.26638861  0.56609024  0.45763830    -0.00700
Br1667     Br  0.38835192  0.54754628  0.44577021    -0.00700
Br1668     Br  0.38786167  0.60201082  0.47856363    -0.00700
C1669       C  0.25269470  0.54838038  0.54496374    -0.01800
C1670       C  0.25008507  0.57435786  0.54114329     0.07900
C1671       C  0.22458032  0.57660723  0.54906123    -0.01900
C1672       C  0.20240778  0.55328584  0.56085043    -0.01900
C1673       C  0.20776695  0.52994729  0.56966943     0.08000
C1674       C  0.23332728  0.52772778  0.56129518    -0.02100
Br1675     Br  0.24573187  0.50050698  0.57522355    -0.00700
Br1676     Br  0.28355279  0.54135291  0.52854837    -0.00700
Br1677     Br  0.16541021  0.05471230  0.56667595    -0.00700
Br1678     Br  0.22168092  0.61281488  0.54805534    -0.00700
C1679       C  0.43025888  0.73671043  0.43301870    -0.01800
C1680       C  0.41977223  0.74661693  0.45438083     0.07900
C1681       C  0.43322650  0.77566146  0.46122343    -0.01900
C1682       C  0.45300735  0.79536895  0.44439463    -0.01900
C1683       C  0.46415030  0.78584771  0.42298348     0.08000
C1684       C  0.45282576  0.75602877  0.41781771    -0.02100
Br1685     Br  0.46507367  0.74155359  0.38799030    -0.00700
Br1686     Br  0.41281909  0.69653327  0.42432928    -0.00700
Br1687     Br  0.45806813  0.83446281  0.44749287    -0.00700
Br1688     Br  0.42444453  0.78849816  0.49360790    -0.00700
C1689       C  0.21668892  0.63895650  0.45873726    -0.01800
C1690       C  0.24379433  0.66069285  0.45248643     0.07900
C1691       C  0.24529209  0.68134017  0.43456163    -0.01900
C1692       C  0.22005116  0.68151078  0.42444901    -0.01900
C1693       C  0.19269015  0.66098334  0.43185613     0.08000
C1694       C  0.19137144  0.63882244  0.44822545    -0.02100
Br1695     Br  0.15537029  0.60618971  0.45433304    -0.00700
Br1696     Br  0.21381893  0.60862254  0.48100485    -0.00700
Br1697     Br  0.22375246  0.70717419  0.39717722    -0.00700
Br1698     Br  0.28226687  0.70764256  0.42125235    -0.00700
C1699       C  0.32833552  0.76900451  0.57460886    -0.01800
C1700       C  0.34184103  0.79801067  0.56754387     0.07900
C1701       C  0.35397107  0.80447859  0.54295112    -0.01900
C1702       C  0.34977607  0.78259117  0.52486035    -0.01900
C1703       C  0.33864419  0.75375128  0.53247802     0.08000
C1704       C  0.32734209  0.74706480  0.55740714    -0.02100
Br1705     Br  0.30912323  0.70772911  0.56777264    -0.00700
Br1706     Br  0.31372159  0.75920795  0.60872896    -0.00700
Br1707     Br  0.35935710  0.79312524  0.48976029    -0.00700
Br1708     Br  0.38133070  0.84247958  0.53514707    -0.00700
C1709       C  0.23839390  0.55781129  0.91679595    -0.01800
C1710       C  0.21004148  0.54361015  0.92662456     0.07900
C1711       C  0.20344993  0.55216886  0.95070935    -0.01900
C1712       C  0.22548932  0.57054652  0.96634037    -0.01900
C1713       C  0.25273213  0.58674895  0.95576183     0.08000
C1714       C  0.25928622  0.58016298  0.93093399    -0.02100
Br1715     Br  0.29668388  0.60234379  0.91620078    -0.00700
Br1716     Br  0.24747857  0.54996271  0.88249880    -0.00700
Br1717     Br  0.21774331  0.57397124  0.00190280    -0.00700
Br1718     Br  0.16503144  0.54820657  0.95878757    -0.00700
C1719       C  0.23292174  0.67592820  0.08206810    -0.01800
C1720       C  0.20350205  0.66279764  0.07539673     0.07900
C1721       C  0.19612371  0.64622340  0.05294993    -0.01900
C1722       C  0.21724960  0.64776922  0.03479729    -0.01900
C1723       C  0.24677597  0.66090504  0.04095294     0.08000
C1724       C  0.25447780  0.67500961  0.06487558    -0.02100
Br1725     Br  0.29456952  0.69578132  0.07294898    -0.00700
Br1726     Br  0.24368483  0.69279985  0.11539970    -0.00700
Br1727     Br  0.20456826  0.63354565  0.00101600    -0.00700
Br1728     Br  0.15793033  0.61642418  0.04955954    -0.00700
C1729       C  0.43063337  0.65770307  0.96645587    -0.01800
C1730       C  0.41469284  0.67438318  0.96205249     0.07900
C1731       C  0.42165249  0.69146521  0.93999934    -0.01900
C1732       C  0.44456583  0.69268207  0.92368975    -0.01900
C1733       C  0.46032254  0.67632108  0.92851686     0.08000
C1734       C  0.45101994  0.65671151  0.94846767    -0.02100
Br1735     Br  0.46198566  0.62488333  0.94886307    -0.00700
Br1736     Br  0.42757331  0.63736956  0.99768798    -0.00700
Br1737     Br  0.45135170  0.71334164  0.89239149    -0.00700
Br1738     Br  0.39933195  0.71230555  0.93063504    -0.00700
C1739       C  0.30463992  0.56419189  0.06874029    -0.01800
C1740       C  0.32230193  0.57492981  0.04715496     0.07900
C1741       C  0.33876153  0.56054807  0.03735687    -0.01900
C1742       C  0.34132019  0.53879186  0.05125472    -0.01900
C1743       C  0.32359314  0.52763457  0.07281564     0.08000
C1744       C  0.30493593  0.54032495  0.08126838    -0.02100
Br1745     Br  0.28390142  0.52884430  0.11280805    -0.00700
Br1746     Br  0.28285130  0.58420770  0.08306075    -0.00700
Br1747     Br  0.37407150  0.53001938  0.04402641    -0.00700
Br1748     Br  0.35909815  0.57154984  0.00523512    -0.00700
C1749       C  0.44064681  0.74260867  0.06595759    -0.01800
C1750       C  0.42919466  0.74752048  0.04320480     0.07900
C1751       C  0.44149206  0.77490635  0.03268506    -0.01900
C1752       C  0.46189999  0.79795992  0.04649991    -0.01900
C1753       C  0.47363915  0.79331737  0.06926278     0.08000
C1754       C  0.46319630  0.76509691  0.07838704    -0.02100
Br1755     Br  0.47681232  0.75759310  0.11011939    -0.00700
Br1756     Br  0.42388054  0.70561006  0.08188112    -0.00700
Br1757     Br  0.96839593  0.83579584  0.03651847    -0.00700
Br1758     Br  0.43138382  0.78066442  0.99883674    -0.00700
C1759       C  0.34881686  0.78468075  0.96379680    -0.01800
C1760       C  0.33334626  0.75589888  0.95679371     0.07900
C1761       C  0.31685382  0.74922601  0.93442725    -0.01900
C1762       C  0.31557958  0.77113636  0.91950158    -0.01900
C1763       C  0.33118607  0.80016301  0.92644458     0.08000
C1764       C  0.34934736  0.80654603  0.94780932    -0.02100
Br1765     Br  0.37939636  0.84405985  0.95261130    -0.00700
Br1766     Br  0.36806221  0.79426439  0.99596279    -0.00700
Br1767     Br  0.29505262  0.76112922  0.88789243    -0.00700
Br1768     Br  0.29717096  0.70988334  0.92329931    -0.00700
O1769       O  0.85546565  0.12050987  0.03560110    -0.80800
O1770       O  0.85526487  0.22889905  0.97862216    -0.65500
O1771       O  0.84641193  0.16964230  0.02617301    -1.12100
C1772       C  0.77186465  0.11358274  0.96860539     1.06000
O1773       O  0.80832787  0.21509597  0.98131495    -0.78700
O1774       O  0.76747804  0.16810251  0.99968381    -0.66300
Ni1775     Ni  0.87844370  0.16051591  0.03135797     1.34900
C1776       C  0.76889594  0.16014215  0.02200546     0.84800
O1777       O  0.88280885  0.22746274  0.02286723    -0.79300
O1778       O  0.90616155  0.19974827  0.02917244    -0.89600
C1779       C  0.83263480  0.23243403  0.97317719     0.84400
O1780       O  0.88160915  0.15366961  0.99610369    -0.67800
O1781       O  0.77440623  0.13698405  0.95875929    -0.87000
C1782       C  0.89149863  0.17385489  0.98057525     0.85200
C1783       C  0.90452453  0.22376473  0.03095039     1.06800
H1784       H  0.83230592  0.16450892  0.96933390     0.38600
O1785       O  0.82335750  0.16980210  0.98377118    -1.09700
O1786       O  0.78771720  0.15107077  0.02825028    -0.66400
Ni1787     Ni  0.81494149  0.14077974  0.00824436     1.26300
O1788       O  0.88319823  0.19420152  0.98196497    -0.66600
O1789       O  0.78442369  0.11228101  0.98891572    -0.78900
C1790       C  0.82896766  0.10402538  0.03793336     0.84600
O1791       O  0.80918262  0.11176108  0.03242441    -0.66100
Ni1792     Ni  0.79215567  0.17603459  0.97044590     1.27400
Ni1793     Ni  0.85296525  0.19964930  0.00243218     1.26100
H1794       H  0.83988286  0.17438197  0.04245863     0.39100
O1795       O  0.78791548  0.18873068  0.47205265    -0.80800
O1796       O  0.88769586  0.19256015  0.53342031    -0.65500
O1797       O  0.83464626  0.17631356  0.47954917    -1.12100
C1798       C  0.77578916  0.09950710  0.53223166     1.06000
O1799       O  0.88060822  0.14712419  0.53236403    -0.78700
O1800       O  0.83833818  0.10511367  0.50596832    -0.66300
Ni1801     Ni  0.82834212  0.20582451  0.46381170     1.34900
C1802       C  0.82625294  0.10284679  0.48469641     0.84800
O1803       O  0.89195581  0.21579711  0.48748212    -0.79300
O1804       O  0.86882057  0.22458434  0.45499661    -0.89600
C1805       C  0.89561395  0.17302403  0.53875520     0.84400
O1806       O  0.83298408  0.23109470  0.49203627    -0.67800
O1807       O  0.79956158  0.10294693  0.54227184    -0.87000
C1808       C  0.84034408  0.23126539  0.51484338     0.85200
C1809       C  0.89186939  0.22788909  0.46653117     1.06800
H1810       H  0.82409657  0.16340040  0.53723466     0.38600
O1811       O  0.83095654  0.15550331  0.52314022    -1.09700
O1812       O  0.81308010  0.11822314  0.47886991    -0.66400
Ni1813     Ni  0.80338437  0.14658928  0.49679663     1.26300
O1814       O  0.84981484  0.21359774  0.52289683    -0.66600
O1815       O  0.77361333  0.11587055  0.51514266    -0.78900
C1816       C  0.77066529  0.16372200  0.46535551     0.84600
O1817       O  0.77623330  0.14239067  0.47040894    -0.66100
Ni1818     Ni  0.83957649  0.12613363  0.53662273     1.27400
Ni1819     Ni  0.86157827  0.18598567  0.50617245     1.26100
H1820       H  0.84171021  0.16756779  0.46618997     0.39100
N1821       N  0.91958007  0.00422333  0.71048871    -0.36600
N1822       N  0.89016457  0.46346177  0.75091617    -0.57100
N1823       N  0.91332044  0.00923240  0.78840093    -0.36600
N1824       N  0.94399886  0.04973043  0.74816480    -0.57100
C1825       C  0.91159480  0.47910964  0.69749527     0.27000
C1826       C  0.93864405  0.02493929  0.69563890     0.27000
C1827       C  0.89831650  0.48754391  0.80423283     0.27000
C1828       C  0.92508478  0.03336404  0.80269176     0.27000
C1829       C  0.87886892  0.44652749  0.73040194     0.35600
C1830       C  0.87667157  0.44852738  0.77172958     0.35600
C1831       C  0.95444761  0.06546304  0.72710677     0.35600
C1832       C  0.95069416  0.06826678  0.76812396     0.35600
C1833       C  0.92588569  0.48404901  0.67413885    -0.21800
C1834       C  0.94222693  0.01294360  0.67270874    -0.21800
C1835       C  0.90043068  0.49814391  0.82892471    -0.21800
C1836       C  0.91716314  0.02695130  0.82795639    -0.21800
C1837       C  0.85723844  0.42095670  0.73820206    -0.22900
C1838       C  0.85639813  0.42193597  0.76427052    -0.22900
C1839       C  0.96830493  0.09409698  0.73380794    -0.22900
C1840       C  0.96602923  0.09584464  0.75970276    -0.22900
C1841       C  0.89027160  0.45218107  0.70523160    -0.18200
C1842       C  0.95221132  0.05450252  0.70188489    -0.18200
C1843       C  0.94293552  0.06109328  0.79389510    -0.18200
C1844       C  0.88282690  0.45833305  0.79733035    -0.18200
H1845       H  0.92423935  0.46856423  0.65928279     0.14700
H1846       H  0.95541898  0.02373200  0.65659747     0.14700
H1847       H  0.89076527  0.48637683  0.84593627     0.14700
H1848       H  0.92287967  0.04147946  0.84414791     0.14700
H1849       H  0.84429565  0.40283192  0.72645566     0.12900
H1850       H  0.84249671  0.40474837  0.77619649     0.12900
H1851       H  0.97891476  0.11193498  0.72136717     0.12900
H1852       H  0.97415154  0.11531157  0.77099941     0.12900
H1853       H  0.90999144  0.00752312  0.72711932     0.26200
H1854       H  0.91657794  0.00755858  0.76917206     0.26200
N1855       N  0.64134480  0.13676775  0.70930427    -0.36600
N1856       N  0.65118549  0.10693722  0.75063056    -0.57100
N1857       N  0.61902428  0.12711699  0.78566835    -0.36600
N1858       N  0.60980736  0.15766116  0.74650697    -0.57100
C1859       C  0.64747874  0.11659636  0.69672612     0.27000
C1860       C  0.62330073  0.14294170  0.69464181     0.27000
C1861       C  0.61879303  0.10368282  0.79679651     0.27000
C1862       C  0.59579630  0.13108756  0.79442627     0.27000
C1863       C  0.66932247  0.10413177  0.73284721     0.35600
C1864       C  0.66030021  0.10264983  0.77333983     0.35600
C1865       C  0.61251707  0.17373159  0.72607148     0.35600
C1866       C  0.60150370  0.16991381  0.76622029     0.35600
C1867       C  0.63472830  0.11142376  0.67303745    -0.21800
C1868       C  0.61878694  0.12735132  0.67205065    -0.21800
C1869       C  0.59462085  0.09202685  0.81248380    -0.21800
C1870       C  0.58023706  0.10961326  0.81119980    -0.21800
C1871       C  0.69062116  0.09863335  0.74432713    -0.22900
C1872       C  0.68584482  0.09934249  0.77015566    -0.22900
C1873       C  0.60689510  0.19718866  0.73297116    -0.22900
C1874       C  0.60062461  0.19515515  0.75870498    -0.22900
C1875       C  0.66331282  0.10208438  0.70673692    -0.18200
C1876       C  0.61119375  0.16255012  0.70123265    -0.18200
C1877       C  0.59051217  0.15536842  0.78910211    -0.18200
C1878       C  0.64209531  0.09548271  0.79513271    -0.18200
H1879       H  0.63586767  0.09699199  0.65821825     0.14700
H1880       H  0.60533648  0.12723449  0.65641798     0.14700
H1881       H  0.58865514  0.07355289  0.82441286     0.14700
H1882       H  0.56099331  0.10729094  0.82179783     0.14700
H1883       H  0.70719940  0.09357816  0.73531595     0.12900
H1884       H  0.69796989  0.09472677  0.78464141     0.12900
H1885       H  0.60540561  0.21286427  0.72039565     0.12900
H1886       H  0.59374863  0.20916318  0.76995648     0.12900
H1887       H  0.64966675  0.14650622  0.72666425     0.26200
H1888       H  0.63640927  0.14184585  0.77552751     0.26200
N1889       N  0.50257566  0.40281580  0.78932467    -0.36600
N1890       N  0.96513470  0.37429363  0.74700978    -0.57100
N1891       N  0.51406289  0.39745738  0.71285347    -0.36600
N1892       N  0.55162855  0.42567715  0.75490592    -0.57100
C1893       C  0.97603708  0.39611528  0.79972643     0.27000
C1894       C  0.52166038  0.42345117  0.80437234     0.27000
C1895       C  0.99418877  0.37983790  0.69659316     0.27000
C1896       C  0.54002667  0.40507690  0.70123701     0.27000
C1897       C  0.94616600  0.36271910  0.76629997     0.35600
C1898       C  0.95146752  0.36248394  0.72514972     0.35600
C1899       C  0.56523469  0.43914093  0.77638141     0.35600
C1900       C  0.57014700  0.43713316  0.73515055     0.35600
C1901       C  0.97837369  0.41307313  0.82117302    -0.21800
C1902       C  0.50701099  0.43041130  0.82397721    -0.21800
C1903       C  0.00755246  0.37576858  0.67463357    -0.21800
C1904       C  0.53659159  0.39121748  0.67777444    -0.21800
C1905       C  0.92085771  0.34210647  0.75667063    -0.22900
C1906       C  0.92375158  0.34290015  0.73063812    -0.22900
C1907       C  0.59281629  0.45865323  0.76962189    -0.22900
C1908       C  0.59511936  0.45850819  0.74389499    -0.22900
C1909       C  0.94996340  0.37359433  0.79168637    -0.18200
C1910       C  0.55201705  0.43622774  0.80121450    -0.18200
C1911       C  0.56596169  0.42728789  0.70954638    -0.18200
C1912       C  0.96414411  0.36836700  0.70047867    -0.18200
H1913       H  0.96123954  0.41258150  0.83387513     0.14700
H1914       H  0.51606455  0.44623751  0.83893136     0.14700
H1915       H  0.99737073  0.36309735  0.65804312     0.14700
H1916       H  0.55317787  0.39324296  0.66379069     0.14700
H1917       H  0.90157935  0.32903975  0.76712490     0.12900
H1918       H  0.90737111  0.33002107  0.71746071     0.12900
H1919       H  0.61009644  0.47309884  0.78082176     0.12900
H1920       H  0.61376165  0.47233464  0.73313435     0.12900
H1921       H  0.50761551  0.39160962  0.77468069     0.26200
H1922       H  0.50971301  0.40713738  0.72898239     0.26200
C1923       C  0.99107545  0.17351407  0.59430274     0.02300
C1924       C  0.51916132  0.19502825  0.59712059     0.02300
C1925       C  0.53567554  0.19364770  0.61732150    -0.18200
C1926       C  0.52724019  0.16952991  0.63256535     0.02300
C1927       C  0.99953693  0.14664281  0.62887074     0.02300
C1928       C  0.98211836  0.14924117  0.60952692    -0.18200
H1929       H  0.96078599  0.13248639  0.60676642     0.04300
H1930       H  0.55667083  0.21101751  0.62004201     0.04300
C1931       C  0.68997552  0.01311511  0.59169513     0.02300
C1932       C  0.67576165  0.48265593  0.59327795     0.02300
C1933       C  0.65728273  0.47091566  0.61410615    -0.18200
C1934       C  0.65356104  0.48773959  0.63394030     0.02300
C1935       C  0.66938352  0.01779840  0.63367559     0.02300
C1936       C  0.68697163  0.02967334  0.61242506    -0.18200
H1937       H  0.69832579  0.05272198  0.61179986     0.04300
H1938       H  0.64521931  0.44792587  0.61486645     0.04300
C1939       C  0.83435366  0.32309508  0.90799998     0.02300
C1940       C  0.82225683  0.34356314  0.91128758     0.02300
C1941       C  0.83052939  0.36638803  0.89421309    -0.18200
C1942       C  0.84947381  0.36909382  0.87352772     0.02300
C1943       C  0.86050151  0.34781444  0.86976453     0.02300
C1944       C  0.85208125  0.32504769  0.88670489    -0.18200
H1945       H  0.86018331  0.30873417  0.88365770     0.04300
H1946       H  0.82204312  0.38241568  0.89717110     0.04300
C1947       C  0.84783835  0.32117295  0.58720648     0.02300
C1948       C  0.82918776  0.33492600  0.59286415     0.02300
C1949       C  0.83487617  0.35330777  0.61405387    -0.18200
C1950       C  0.85965661  0.36069036  0.62870007     0.02300
C1951       C  0.87880422  0.34728148  0.62284742     0.02300
C1952       C  0.87260680  0.32818616  0.60192201    -0.18200
H1953       H  0.88714292  0.31819595  0.59715715     0.04300
H1954       H  0.81977019  0.36260134  0.61892202     0.04300
C1955       C  0.68626758  0.02585192  0.90948198     0.02300
C1956       C  0.67176537  0.49567408  0.91017614     0.02300
C1957       C  0.64815141  0.48145146  0.89421275    -0.18200
C1958       C  0.63838020  0.49629456  0.87746521     0.02300
C1959       C  0.65497301  0.02638487  0.87536740     0.02300
C1960       C  0.67787492  0.04050245  0.89175189    -0.18200
H1961       H  0.68985611  0.06345210  0.89032694     0.04300
H1962       H  0.63785304  0.45834928  0.89444024     0.04300
C1963       C  0.98172259  0.17490674  0.90937336     0.02300
C1964       C  0.51106926  0.19493912  0.90787224     0.02300
C1965       C  0.52775772  0.19344258  0.88680134    -0.18200
C1966       C  0.51731036  0.17202310  0.86810529     0.02300
C1967       C  0.98833530  0.15148415  0.87002785     0.02300
C1968       C  0.97116538  0.15332258  0.89060849    -0.18200
H1969       H  0.94902440  0.13771842  0.89200076     0.04300
H1970       H  0.54972679  0.20935805  0.88502813     0.04300
O1971       O  0.62191129  0.35541381  0.46808451    -0.80800
O1972       O  0.72677966  0.35305114  0.53079914    -0.65500
O1973       O  0.67024130  0.34484165  0.48032617    -1.12100
C1974       C  0.60814497  0.27387385  0.53668097     1.06000
O1975       O  0.71131247  0.30613005  0.53216312    -0.78700
O1976       O  0.66522702  0.26737508  0.51055130    -0.66300
Ni1977     Ni  0.66256288  0.37707978  0.47293768     1.34900
C1978       C  0.65815600  0.26793548  0.48773682     0.84800
O1979       O  0.72861960  0.37864051  0.48517023    -0.79300
O1980       O  0.70254884  0.40296431  0.47526815    -0.89600
C1981       C  0.72988316  0.33086201  0.53776725     0.84400
O1982       O  0.65539932  0.38348263  0.50760785    -0.67800
O1983       O  0.63054812  0.27552700  0.54818641    -0.87000
C1984       C  0.67513394  0.39215041  0.52392305     0.85200
C1985       C  0.72611312  0.39995785  0.47521108     1.06800
H1986       H  0.66155529  0.33312349  0.53744002     0.38600
O1987       O  0.66711725  0.32328059  0.52397198    -1.09700
O1988       O  0.64938002  0.28642752  0.48027451    -0.66400
Ni1989     Ni  0.63953720  0.31516547  0.49770917     1.26300
O1990       O  0.69443838  0.38233459  0.52411923    -0.66600
O1991       O  0.60880773  0.28655744  0.51612198    -0.78900
C1992       C  0.60565003  0.32917509  0.46443150     0.84600
O1993       O  0.61265992  0.30950959  0.47136168    -0.66100
Ni1994     Ni  0.67091325  0.29199955  0.53952323     1.27400
Ni1995     Ni  0.69887901  0.35083712  0.50554482     1.26100
H1996       H  0.67541407  0.33762354  0.46474120     0.39100
O1997       O  0.69171764  0.29162005  0.01791066    -0.80800
O1998       O  0.69516755  0.39396367  0.96756972    -0.65500
O1999       O  0.67600180  0.33603000  0.01671678    -1.12100
C2000       C  0.59703628  0.28478632  0.96648102     1.06000
O2001       O  0.64954638  0.38809514  0.96533690    -0.78700
O2002       O  0.62056280  0.35374249  0.00326397    -0.66300
Ni2003     Ni  0.70582603  0.32947274  0.03195619     1.34900
C2004       C  0.60874532  0.33298154  0.01798549     0.84800
O2005       O  0.71734590  0.39254672  0.01247775    -0.79300
O2006       O  0.72130588  0.36778193  0.04573616    -0.89600
C2007       C  0.67636534  0.40311521  0.96230855     0.84400
O2008       O  0.73460136  0.34052471  0.00574561    -0.67800
O2009       O  0.59625341  0.30922510  0.96830029    -0.87000
C2010       C  0.73355643  0.34594093  0.98257824     0.85200
C2011       C  0.72699072  0.39127395  0.03438462     1.06800
H2012       H  0.66224261  0.33273955  0.95747696     0.38600
O2013       O  0.65554193  0.33736932  0.97352118    -1.09700
O2014       O  0.61609113  0.31189765  0.01675578    -0.66400
Ni2015     Ni  0.64721075  0.30673683  0.99682826     1.26300
O2016       O  0.71391060  0.35277841  0.97420055    -0.66600
O2017       O  0.61792248  0.28000356  0.97516707    -0.78900
C2018       C  0.66733259  0.27273780  0.02419476     0.84600
O2019       O  0.64445700  0.27630746  0.01951382    -0.66100
Ni2020     Ni  0.62491676  0.34819926  0.96790679     1.27400
Ni2021     Ni  0.68693319  0.36505861  0.99227758     1.26100
H2022       H  0.66636716  0.34158601  0.03042387     0.39100
N2023       N  0.99245891  0.09591568  0.21297371    -0.36600
N2024       N  0.94893047  0.07031808  0.25166417    -0.57100
N2025       N  0.99130999  0.09953106  0.28970037    -0.36600
N2026       N  0.53508437  0.12712473  0.25077276    -0.57100
C2027       C  0.96759774  0.08959081  0.20052784     0.27000
C2028       C  0.51365440  0.11644937  0.19973597     0.27000
C2029       C  0.96709634  0.08813595  0.30427307     0.27000
C2030       C  0.51245069  0.11811980  0.30451412     0.27000
C2031       C  0.93427067  0.05627538  0.23105115     0.35600
C2032       C  0.93433981  0.05556228  0.27197162     0.35600
C2033       C  0.55192767  0.12710748  0.23038141     0.35600
C2034       C  0.55189050  0.13281764  0.27155958     0.35600
C2035       C  0.97267488  0.10683717  0.17965110    -0.21800
C2036       C  0.50165185  0.12422261  0.17942591    -0.21800
C2037       C  0.97270816  0.09995276  0.32848518    -0.21800
C2038       C  0.50130240  0.11804495  0.32888390    -0.21800
C2039       C  0.91007632  0.03252996  0.23813914    -0.22900
C2040       C  0.91019470  0.03192688  0.26421428    -0.22900
C2041       C  0.57910083  0.13183097  0.23837989    -0.22900
C2042       C  0.57980141  0.13787137  0.26383355    -0.22900
C2043       C  0.94121606  0.06664943  0.20629585    -0.18200
C2044       C  0.54334385  0.12521521  0.20464947    -0.18200
C2045       C  0.54209021  0.13169215  0.29742571    -0.18200
C2046       C  0.94104411  0.06500306  0.29729468    -0.18200
H2047       H  0.95718430  0.10659491  0.16582190     0.14700
H2048       H  0.51213064  0.14004317  0.16536820     0.14700
H2049       H  0.95818559  0.09476569  0.34473426     0.14700
H2050       H  0.51239028  0.12849670  0.34589750     0.14700
H2051       H  0.89360561  0.01796092  0.22583363     0.12900
H2052       H  0.89377645  0.01662491  0.27611251     0.12900
H2053       H  0.59718191  0.13246239  0.22693492     0.12900
H2054       H  0.59883585  0.14409499  0.27515745     0.12900
H2055       H  0.99555404  0.08405490  0.22750082     0.26200
H2056       H  0.99433625  0.09199316  0.27191486     0.26200
N2057       N  0.87677362  0.36889762  0.28710610    -0.36600
N2058       N  0.86304881  0.40500222  0.25473695    -0.57100
N2059       N  0.87243121  0.37301366  0.21269528    -0.36600
N2060       N  0.88396231  0.33395808  0.24470454    -0.57100
C2061       C  0.86446187  0.38096499  0.30395172     0.27000
C2062       C  0.87862153  0.34649154  0.29841814     0.27000
C2063       C  0.85887060  0.38749936  0.20172108     0.27000
C2064       C  0.87305578  0.35319823  0.19569720     0.27000
C2065       C  0.86869751  0.42048625  0.27651378     0.35600
C2066       C  0.86672644  0.42334015  0.23574989     0.35600
C2067       C  0.89834676  0.32745743  0.26307637     0.35600
C2068       C  0.89382753  0.32773335  0.22232739     0.35600
C2069       C  0.85706179  0.36502749  0.32594888    -0.21800
C2070       C  0.86686164  0.34374452  0.32270989    -0.21800
C2071       C  0.84925630  0.37562026  0.17798894    -0.21800
C2072       C  0.85927900  0.35485195  0.17377735    -0.21800
C2073       C  0.87587127  0.44896616  0.27140773    -0.22900
C2074       C  0.87467076  0.45075739  0.24541405    -0.22900
C2075       C  0.91591615  0.31543175  0.25239989    -0.22900
C2076       C  0.91229089  0.31468719  0.22666142    -0.22900
C2077       C  0.86406007  0.40815844  0.30079649    -0.18200
C2078       C  0.89645448  0.33330933  0.28924632    -0.18200
C2079       C  0.89034640  0.33794790  0.19837076    -0.18200
C2080       C  0.86096057  0.41462771  0.21016671    -0.18200
H2081       H  0.84774911  0.36961178  0.34322282     0.14700
H2082       H  0.86668220  0.32883175  0.33695562     0.14700
H2083       H  0.83871141  0.38305798  0.16408452     0.14700
H2084       H  0.85756160  0.34366520  0.15597146     0.14700
H2085       H  0.88087900  0.46636971  0.28503637     0.12900
H2086       H  0.87858192  0.46976448  0.23484947     0.12900
H2087       H  0.93057449  0.30870219  0.26193264     0.12900
H2088       H  0.92386174  0.30757580  0.21265189     0.12900
H2089       H  0.88831206  0.37833762  0.27078604     0.26200
H2090       H  0.88555113  0.37983944  0.22850480     0.26200
C2091       C  0.83141738  0.01447864  0.41572788     0.02300
C2092       C  0.81823630  0.48410649  0.41757733     0.02300
C2093       C  0.82670577  0.46768417  0.40016598    -0.18200
C2094       C  0.84599239  0.48001994  0.38013542     0.02300
C2095       C  0.85848688  0.01005512  0.37784821     0.02300
C2096       C  0.85103864  0.02668782  0.39559762    -0.18200
H2097       H  0.86118676  0.04974600  0.39398569     0.04300
H2098       H  0.81673520  0.44457124  0.40132264     0.04300
N2099       N  0.58618827  0.49422616  0.28817891    -0.36600
N2100       N  0.55866184  0.45634098  0.24707033    -0.57100
N2101       N  0.57726045  0.50556286  0.21219046    -0.36600
N2102       N  0.60709438  0.04359340  0.25340934    -0.57100
C2103       C  0.58040019  0.46866828  0.29909095     0.27000
C2104       C  0.60590970  0.01481991  0.30266380     0.27000
C2105       C  0.56792260  0.48348190  0.19522068     0.27000
C2106       C  0.59169195  0.02986140  0.19896722     0.27000
C2107       C  0.54728964  0.43772872  0.26639815     0.35600
C2108       C  0.54460458  0.44325839  0.22572932     0.35600
C2109       C  0.61561561  0.05763547  0.27591664     0.35600
C2110       C  0.61105397  0.06367700  0.23558681     0.35600
C2111       C  0.59720246  0.47320026  0.32049354    -0.21800
C2112       C  0.61303166  0.00228791  0.32288471    -0.21800
C2113       C  0.57611262  0.49393072  0.17092521    -0.21800
C2114       C  0.59068582  0.02307152  0.17323971    -0.21800
C2115       C  0.52549014  0.41295850  0.25726441    -0.22900
C2116       C  0.52465172  0.41613764  0.23150066    -0.22900
C2117       C  0.62594634  0.08679412  0.27194943    -0.22900
C2118       C  0.62313439  0.09059751  0.24658486    -0.22900
C2119       C  0.55850022  0.44181624  0.29143828    -0.18200
C2120       C  0.61495642  0.04470400  0.29985219    -0.18200
C2121       C  0.60500762  0.05816039  0.20928871    -0.17000
C2122       C  0.55095347  0.45429372  0.20071635    -0.18200
H2123       H  0.59731796  0.45728996  0.33353369     0.14700
H2124       H  0.62762091  0.01310459  0.33812713     0.14700
H2125       H  0.57164015  0.48187906  0.15321487     0.14700
H2126       H  0.59953266  0.03750525  0.15759815     0.14700
H2127       H  0.51257064  0.39394988  0.26771334     0.12900
H2128       H  0.51158087  0.39999409  0.21827472     0.12900
H2129       H  0.63476220  0.10375959  0.28581853     0.12900
H2130       H  0.62948739  0.11087968  0.23730595     0.12900
H2131       H  0.57434443  0.49802264  0.27405144     0.26200
H2132       H  0.57178465  0.50429126  0.23134819     0.26200
C2133       C  0.83062759  0.00925705  0.09037272     0.02300
C2134       C  0.81533777  0.47903099  0.09193872     0.02300
C2135       C  0.82295779  0.46469163  0.11086689    -0.18200
C2136       C  0.84436641  0.47950121  0.12853956     0.02300
C2137       C  0.85973744  0.00943429  0.12678397     0.02300
C2138       C  0.85297556  0.02374037  0.10746990    -0.18200
H2139       H  0.86452700  0.04675194  0.10636692     0.04300
H2140       H  0.81132772  0.44174002  0.11246476     0.04300
C2141       C  0.65463216  0.17774983  0.41499513     0.02300
C2142       C  0.66718759  0.15753180  0.41633123     0.02300
C2143       C  0.65854793  0.13452952  0.39902378    -0.18200
C2144       C  0.63886081  0.13086309  0.37980493     0.02300
C2145       C  0.62605020  0.15091280  0.37788157     0.02300
C2146       C  0.63490334  0.17411581  0.39539854    -0.18200
H2147       H  0.62708999  0.19047088  0.39345479     0.04300
H2148       H  0.66855950  0.11957642  0.39973358     0.04300
C2149       C  0.66154182  0.17730781  0.08290310     0.02300
C2150       C  0.67955824  0.16416268  0.09172096     0.02300
C2151       C  0.67085515  0.14720531  0.11400106    -0.18200
C2152       C  0.64332208  0.14033070  0.12576798     0.02300
C2153       C  0.62733414  0.15347921  0.11598575     0.02300
C2154       C  0.63574597  0.17190585  0.09579464    -0.18200
H2155       H  0.62251704  0.18294266  0.09073004     0.04300
H2156       H  0.68563869  0.13936039  0.12162342     0.04300
C2157       C  0.98109275  0.30666729  0.40282683     0.02300
C2158       C  0.51152482  0.32284319  0.40251283     0.02300
C2159       C  0.52424999  0.34306488  0.38320576    -0.18200
C2160       C  0.50795950  0.34753566  0.36391126     0.02300
C2161       C  0.97781572  0.32998827  0.36339268     0.02300
C2162       C  0.96506270  0.31064666  0.38316362    -0.18200
H2163       H  0.94192667  0.29831874  0.38325052     0.04300
H2164       H  0.54728353  0.35586818  0.38341970     0.04300
C2165       C  0.98858225  0.31772089  0.08741144     0.02300
C2166       C  0.51721837  0.33894101  0.08488078     0.02300
C2167       C  0.52592673  0.36310623  0.10128688    -0.18200
C2168       C  0.50797131  0.36617591  0.12103933     0.02300
C2169       C  0.97953083  0.34411032  0.12392717     0.02300
C2170       C  0.97141211  0.32009243  0.10768629    -0.18200
H2171       H  0.95049736  0.30264793  0.11048913     0.04300
H2172       H  0.54754456  0.37955782  0.09906491     0.04300
C2173       C  0.53624818  0.42137948  0.33447014    -0.01800
C2174       C  0.54711402  0.41741282  0.31036255     0.07900
C2175       C  0.54766799  0.39034984  0.30509587    -0.01900
C2176       C  0.53380727  0.36713617  0.32184342    -0.01900
C2177       C  0.52289382  0.37158143  0.34565683     0.08000
C2178       C  0.52803538  0.39983533  0.35284269    -0.02100
Br2179     Br  0.02703628  0.41007350  0.38828596    -0.00700
Br2180     Br  0.52958205  0.45493280  0.34218750    -0.00700
Br2181     Br  0.53189975  0.32976944  0.31329369    -0.00700
Br2182     Br  0.56895606  0.38532640  0.27604613    -0.00700
C2183       C  0.54562775  0.39506654  0.15333519    -0.01800
C2184       C  0.52074997  0.39125485  0.13926367     0.07900
C2185       C  0.50778756  0.41062960  0.14378368    -0.01900
C2186       C  0.51729221  0.43100868  0.16390922    -0.01900
C2187       C  0.54089906  0.43340481  0.17879081     0.08000
C2188       C  0.55557984  0.41606797  0.17277015    -0.02100
Br2189     Br  0.58922021  0.42076415  0.19188963    -0.00700
Br2190     Br  0.56474208  0.36967156  0.14855261    -0.00700
Br2191     Br  0.99760228  0.45528215  0.17159804    -0.00700
Br2192     Br  0.97782266  0.41021588  0.12185280    -0.00700
C2193       C  0.65098649  0.08446824  0.32683083    -0.01800
C2194       C  0.62282694  0.06333469  0.32350388     0.07900
C2195       C  0.60139536  0.06137401  0.34194548    -0.01900
C2196       C  0.60694980  0.08275608  0.36094214    -0.01900
C2197       C  0.63387014  0.10629081  0.36173101     0.08000
C2198       C  0.65653071  0.10595200  0.34573887    -0.02100
Br2199     Br  0.69474603  0.13636357  0.34786488    -0.00700
Br2200     Br  0.68183808  0.08423850  0.30504826    -0.00700
Br2201     Br  0.57750860  0.08025313  0.38566546    -0.00700
Br2202     Br  0.56348912  0.03071175  0.34041311    -0.00700
C2203       C  0.63923965  0.08840472  0.17690433    -0.01800
C2204       C  0.61420078  0.08300249  0.19090633     0.07900
C2205       C  0.59523894  0.09573502  0.18347633    -0.01900
C2206       C  0.60379385  0.11942664  0.16441219    -0.01900
C2207       C  0.63022370  0.12072183  0.14900222     0.08000
C2208       C  0.64288049  0.10155906  0.15374470    -0.02100
Br2209     Br  0.65541879  0.08368946  0.12600233    -0.00700
Br2210     Br  0.66513539  0.07134591  0.18594329    -0.00700
Br2211     Br  0.56557994  0.16490042  0.14901821    -0.00700
Br2212     Br  0.55685562  0.07274886  0.19746709    -0.00700
C2213       C  0.93763766  0.35700644  0.31863905    -0.01800
C2214       C  0.91806018  0.33163480  0.30707828     0.07900
C2215       C  0.91932222  0.30559734  0.31312477    -0.01900
C2216       C  0.94138288  0.30574612  0.32898533    -0.01900
C2217       C  0.95842703  0.33087678  0.34288271     0.08000
C2218       C  0.95385330  0.35564613  0.33912042    -0.02100
Br2219     Br  0.96039459  0.38365207  0.36566628    -0.00700
Br2220     Br  0.94453923  0.39402608  0.30564985    -0.00700
Br2221     Br  0.94756832  0.27138363  0.33172150    -0.00700
Br2222     Br  0.89041390  0.26990334  0.30076235    -0.00700
C2223       C  0.94183505  0.35641293  0.18382060    -0.01800
C2224       C  0.91247056  0.34097389  0.17811455     0.07900
C2225       C  0.90551802  0.32792504  0.15397444    -0.01900
C2226       C  0.92734612  0.33431772  0.13525544    -0.01900
C2227       C  0.95675977  0.34462214  0.14261663     0.08000
C2228       C  0.96282208  0.35272920  0.16836522    -0.02100
Br2229     Br  0.49390567  0.34878854  0.18531440    -0.00700
Br2230     Br  0.95337442  0.38170019  0.21303401    -0.00700
Br2231     Br  0.91588296  0.33035389  0.10013216    -0.00700
Br2232     Br  0.86826895  0.29764367  0.14752664    -0.00700
C2233       C  0.83279613  0.45290075  0.33871715    -0.01800
C2234       C  0.85006767  0.46062015  0.36051747     0.07900
C2235       C  0.86916411  0.44768319  0.36449647    -0.01900
C2236       C  0.87505490  0.43183057  0.34475198    -0.01900
C2237       C  0.85791785  0.42416909  0.32270034     0.08000
C2238       C  0.83540050  0.43333390  0.32081460    -0.02100
Br2239     Br  0.80724212  0.41840949  0.29421716    -0.00700
Br2240     Br  0.80456529  0.46803484  0.33360915    -0.00700
Br2241     Br  0.90799658  0.42295186  0.34786437    -0.00700
Br2242     Br  0.88505273  0.44901178  0.39765337    -0.00700
C2243       C  0.83635819  0.44416508  0.19253818    -0.01800
C2244       C  0.85860403  0.43446888  0.19090701     0.07900
C2245       C  0.87612393  0.44012156  0.16873508    -0.01900
C2246       C  0.86859055  0.45106856  0.14735579    -0.01900
C2247       C  0.84876866  0.46350569  0.14986814     0.08000
C2248       C  0.83261475  0.46006713  0.17259124    -0.02100
Br2249     Br  0.80328082  0.47452991  0.17532484    -0.00700
Br2250     Br  0.80952377  0.43405940  0.22085633    -0.00700
Br2251     Br  0.88061051  0.44320385  0.11415619    -0.00700
Br2252     Br  0.91027003  0.43259166  0.16717277    -0.00700
C2253       C  0.87283894  0.03972698  0.33830146    -0.01800
C2254       C  0.87966775  0.02471948  0.35735199     0.07900
C2255       C  0.90753321  0.02532531  0.35766910    -0.01900
C2256       C  0.92617902  0.03558942  0.33673072    -0.01900
C2257       C  0.91945631  0.05051861  0.31764491     0.08000
C2258       C  0.89319761  0.05359719  0.31912153    -0.02100
Br2259     Br  0.88576911  0.07806819  0.29573080    -0.00700
Br2260     Br  0.83652884  0.04314623  0.33926887    -0.00700
Br2261     Br  0.96103402  0.02936632  0.33450839    -0.00700
Br2262     Br  0.92288472  0.51891717  0.38873816    -0.00700
C2263       C  0.89532588  0.05775958  0.18349024    -0.01800
C2264       C  0.92046989  0.05296351  0.18553831     0.07900
C2265       C  0.92637895  0.03550266  0.16741300    -0.01900
C2266       C  0.90840964  0.02463968  0.14645524    -0.01900
C2267       C  0.88156148  0.02633085  0.14595232     0.08000
C2268       C  0.87542131  0.04372311  0.16423159    -0.02100
Br2269     Br  0.84041187  0.04934431  0.16256628    -0.00700
Br2270     Br  0.88822562  0.08342792  0.20715800    -0.00700
Br2271     Br  0.92320700  0.01255122  0.11675463    -0.00700
Br2272     Br  0.95748833  0.02417911  0.17243133    -0.00700
C2273       C  0.58292250  0.15962558  0.35978479    -0.01800
C2274       C  0.60465590  0.14878191  0.35741180     0.07900
C2275       C  0.60621124  0.13597248  0.33396144    -0.01900
C2276       C  0.58172214  0.12473879  0.31907725    -0.01900
C2277       C  0.56390162  0.13929123  0.31823001     0.08000
C2278       C  0.56651226  0.15913797  0.33816851    -0.02100
Br2279     Br  0.54832598  0.18530308  0.33619723    -0.00700
Br2280     Br  0.57086964  0.17026811  0.39190603    -0.00700
Br2281     Br  0.57113049  0.08847458  0.30214949    -0.00700
Br2282     Br  0.64208887  0.15236999  0.31570168    -0.00700
C2283       C  0.55562699  0.11286795  0.15558601    -0.01800
C2284       C  0.56522703  0.13062137  0.18280532     0.07900
C2285       C  0.59588371  0.15848192  0.18405377    -0.01900
C2286       C  0.61560727  0.16893898  0.15910618    -0.01900
C2287       C  0.60512184  0.15192636  0.13242489     0.08000
C2288       C  0.57565561  0.12365525  0.13067236    -0.02100
Br2289     Br  0.56591391  0.10251101  0.09918183    -0.00700
Br2290     Br  0.51988678  0.08021014  0.15006570    -0.00700
Br2291     Br  0.65194362  0.20165239  0.16064466    -0.00700
Br2292     Br  0.60434053  0.18760494  0.21027567    -0.00700
C2293       C  0.68621312  0.22874937  0.07170415    -0.01800
C2294       C  0.66937886  0.20040763  0.06363796     0.07900
C2295       C  0.65219330  0.19612102  0.04171523    -0.01900
C2296       C  0.65211527  0.21956341  0.02825622    -0.01900
C2297       C  0.66713807  0.24754110  0.03767281     0.08000
C2298       C  0.68468527  0.25202181  0.05917955    -0.02100
Br2299     Br  0.70489360  0.29017133  0.07313645    -0.00700
Br2300     Br  0.70830387  0.23600112  0.10229498    -0.00700
Br2301     Br  0.63209475  0.21337805  0.99652774    -0.00700
Br2302     Br  0.62569010  0.15836653  0.03156450    -0.00700
C2303       C  0.57809082  0.31933833  0.05889551    -0.01800
C2304       C  0.58473628  0.33328757  0.03521178     0.07900
C2305       C  0.56855983  0.34889753  0.02813676    -0.01900
C2306       C  0.54832941  0.35224305  0.04508078    -0.01900
C2307       C  0.53951383  0.33590901  0.06725393     0.08000
C2308       C  0.55530398  0.32018276  0.07446322    -0.02100
Br2309     Br  0.54867481  0.30317707  0.10749521    -0.00700
Br2310     Br  0.60135685  0.30083850  0.07128171    -0.00700
Br2311     Br  0.53670755  0.38296484  0.03964090    -0.00700
Br2312     Br  0.57169649  0.36472577  0.99457215    -0.00700
C2313       C  0.77383290  0.43420573  0.03548146    -0.01800
C2314       C  0.74693121  0.41810047  0.04685946     0.07900
C2315       C  0.74114740  0.42538340  0.07165180    -0.01900
C2316       C  0.76276490  0.44743891  0.08542509    -0.01900
C2317       C  0.79099483  0.46118585  0.07510839     0.08000
C2318       C  0.79648209  0.45309686  0.05040960    -0.02100
Br2319     Br  0.83496900  0.46047755  0.03932942    -0.00700
Br2320     Br  0.78015549  0.43024047  0.99961104    -0.00700
Br2321     Br  0.75421049  0.45595654  0.11962975    -0.00700
Br2322     Br  0.70336931  0.40520556  0.08654529    -0.00700
C2323       C  0.66767088  0.25190628  0.44350896    -0.01800
C2324       C  0.65993925  0.24561289  0.46940260     0.07900
C2325       C  0.65362096  0.21745410  0.47760040    -0.01900
C2326       C  0.65130835  0.19561391  0.45981677    -0.01900
C2327       C  0.65955819  0.20180396  0.43409622     0.08000
C2328       C  0.66793328  0.23043556  0.42617674    -0.02100
Br2329     Br  0.67864433  0.24075067  0.39114769    -0.00700
Br2330     Br  0.67971352  0.29044973  0.43153833    -0.00700
Br2331     Br  0.63128325  0.15664371  0.47027097    -0.00700
Br2332     Br  0.64761790  0.20736130  0.51316666    -0.00700
C2333       C  0.56182816  0.33833558  0.45859196    -0.01800
C2334       C  0.57778173  0.32233921  0.45179901     0.07900
C2335       C  0.56953662  0.30383743  0.43039935    -0.01900
C2336       C  0.54633341  0.30242074  0.41538575    -0.01900
C2337       C  0.53141926  0.31974420  0.42138784     0.08000
C2338       C  0.54041637  0.33868937  0.44246412    -0.02100
Br2339     Br  0.02887110  0.36978101  0.44640123    -0.00700
Br2340     Br  0.56956837  0.36043349  0.48998092    -0.00700
Br2341     Br  0.53852247  0.28048525  0.38411065    -0.00700
Br2342     Br  0.59185573  0.28275518  0.41988855    -0.00700
C2343       C  0.74627210  0.42656553  0.43592433    -0.01800
C2344       C  0.75029541  0.42217419  0.46157718     0.07900
C2345       C  0.77510539  0.44123199  0.47413180    -0.01900
C2346       C  0.79679020  0.46351494  0.46055065    -0.01900
C2347       C  0.79328972  0.46727873  0.43448119     0.08000
C2348       C  0.76725403  0.44915512  0.42265585    -0.02100
Br2349     Br  0.76030602  0.45416402  0.38757332    -0.00700
Br2350     Br  0.71217555  0.40061658  0.41833949    -0.00700
Br2351     Br  0.83137604  0.98784094  0.47769679    -0.00700
Br2352     Br  0.77877848  0.43722620  0.51002269    -0.00700
C2353       C  0.53818904  0.24672725  0.91831697    -0.01800
C2354       C  0.52656400  0.21821497  0.92678095     0.07900
C2355       C  0.53752833  0.21221182  0.94937410    -0.01900
C2356       C  0.55855470  0.23433145  0.96360441    -0.01900
C2357       C  0.57224693  0.26188185  0.95352480     0.08000
C2358       C  0.56168743  0.26799545  0.93079351    -0.02100
Br2359     Br  0.58107696  0.30471335  0.91477631    -0.00700
Br2360     Br  0.52452095  0.25615460  0.88740930    -0.00700
Br2361     Br  0.56765108  0.22707355  0.99734656    -0.00700
Br2362     Br  0.52858842  0.17367683  0.95883269    -0.00700
C2363       C  0.69738214  0.46392538  0.91664914    -0.01800
C2364       C  0.68026134  0.47760072  0.92672102     0.07900
C2365       C  0.66595746  0.46875791  0.95023465    -0.01900
C2366       C  0.67041392  0.44823943  0.96430658    -0.01900
C2367       C  0.68445550  0.43229387  0.95299921     0.08000
C2368       C  0.69895137  0.44082813  0.92953574    -0.02100
Br2369     Br  0.71784918  0.41880786  0.91370767    -0.00700
Br2370     Br  0.71439215  0.47330226  0.88318521    -0.00700
Br2371     Br  0.65495316  0.44011356  0.99851372    -0.00700
Br2372     Br  0.63437577  0.47816773  0.96033160    -0.00700
C2373       C  0.77574676  0.31594471  0.58658358    -0.01800
C2374       C  0.80391856  0.33204263  0.57732378     0.07900
C2375       C  0.80754304  0.35049788  0.55670926    -0.01900
C2376       C  0.78358247  0.34951761  0.54319655    -0.01900
C2377       C  0.75550809  0.33275399  0.55197945     0.08000
C2378       C  0.75173888  0.31636747  0.57408628    -0.02100
Br2379     Br  0.71365813  0.29581623  0.58844615    -0.00700
Br2380     Br  0.77000069  0.29606993  0.61826787    -0.00700
Br2381     Br  0.78947721  0.37020988  0.51198237    -0.00700
Br2382     Br  0.84437838  0.38101941  0.54962351    -0.00700
C2383       C  0.80711878  0.35865472  0.95319203    -0.01800
C2384       C  0.79969390  0.34153442  0.93091100     0.07900
C2385       C  0.77013648  0.32622211  0.92545739    -0.01900
C2386       C  0.74860367  0.32757105  0.94224999    -0.01900
C2387       C  0.75623718  0.34391209  0.96499998     0.08000
C2388       C  0.78579179  0.35755448  0.97117750    -0.02100
Br2389     Br  0.79802519  0.37356214  0.00462223    -0.00700
Br2390     Br  0.84563046  0.38749697  0.95744728    -0.00700
Br2391     Br  0.70852780  0.30490898  0.93510020    -0.00700
Br2392     Br  0.75890187  0.30590616  0.89356381    -0.00700
C2393       C  0.68734974  0.44023812  0.58305129    -0.01800
C2394       C  0.67849774  0.46141971  0.57455627     0.07900
C2395       C  0.66886252  0.45954969  0.54946500    -0.01900
C2396       C  0.66997975  0.43828919  0.53264289    -0.01900
C2397       C  0.67676631  0.41595885  0.54157446     0.08000
C2398       C  0.68543067  0.41713409  0.56700385    -0.02100
Br2399     Br  0.69319475  0.38645813  0.58062788    -0.00700
Br2400     Br  0.70277724  0.44293202  0.61677440    -0.00700
Br2401     Br  0.66419843  0.44168529  0.49689432    -0.00700
Br2402     Br  0.65081934  0.48371005  0.53862398    -0.00700
C2403       C  0.54685873  0.20662627  0.55616014    -0.01800
C2404       C  0.53494710  0.21596619  0.57718085     0.07900
C2405       C  0.54536806  0.24559352  0.58263493    -0.01900
C2406       C  0.56803807  0.26521133  0.56794401    -0.01900
C2407       C  0.57997459  0.25538290  0.54757179     0.08000
C2408       C  0.56767828  0.22648829  0.54041187    -0.02100
Br2409     Br  0.58108259  0.21399574  0.50990621    -0.00700
Br2410     Br  0.54171131  0.16746912  0.55260554    -0.00700
Br2411     Br  0.58394212  0.30545262  0.57627508    -0.00700
Br2412     Br  0.53217160  0.25905533  0.61263187    -0.00700
C2413       C  0.92915972  0.35281739  0.83460376    -0.01800
C2414       C  0.92531914  0.36266158  0.81067592     0.07900
C2415       C  0.89863520  0.36376963  0.80600298    -0.01900
C2416       C  0.87594795  0.35309179  0.82370906    -0.01900
C2417       C  0.88170638  0.34928471  0.84898644     0.08000
C2418       C  0.90866492  0.34872274  0.85431817    -0.02100
Br2419     Br  0.91944626  0.34525301  0.88863170    -0.00700
Br2420     Br  0.96291058  0.34589098  0.84084968    -0.00700
Br2421     Br  0.83698644  0.34177112  0.81257753    -0.00700
Br2422     Br  0.89380079  0.38431412  0.77809702    -0.00700
C2423       C  0.56807821  0.43880765  0.84874124    -0.01800
C2424       C  0.57019639  0.45081829  0.82408382     0.07900
C2425       C  0.59166804  0.47811754  0.82150738    -0.01900
C2426       C  0.61676313  0.48420626  0.83479822    -0.01900
C2427       C  0.61304265  0.47981811  0.86073492     0.08000
C2428       C  0.58775463  0.45538089  0.86808070    -0.02100
Br2429     Br  0.57933282  0.44492110  0.90315694    -0.00700
Br2430     Br  0.54075174  0.40062052  0.85608593    -0.00700
Br2431     Br  0.63890578  0.96414263  0.82136257    -0.00700
Br2432     Br  0.58083194  0.00790867  0.81181568    -0.00700
C2433       C  0.61770166  0.44455828  0.69229429    -0.01800
C2434       C  0.58905388  0.44202712  0.68994234     0.07900
C2435       C  0.58221639  0.45359820  0.66824377    -0.01900
C2436       C  0.60252771  0.46435215  0.64863845    -0.01900
C2437       C  0.63183077  0.47260339  0.65369626     0.08000
C2438       C  0.63948437  0.46251478  0.67573047    -0.02100
Br2439     Br  0.67941645  0.47198401  0.68234090    -0.00700
Br2440     Br  0.62705865  0.42251330  0.71685591    -0.00700
Br2441     Br  0.58944892  0.46431052  0.61439503    -0.00700
Br2442     Br  0.54626605  0.45721096  0.66544794    -0.00700
C2443       C  0.92895201  0.33411766  0.66917356    -0.01800
C2444       C  0.94554826  0.36225606  0.67748545     0.07900
C2445       C  0.94489753  0.38513386  0.66345622    -0.01900
C2446       C  0.92582092  0.37975419  0.64307506    -0.01900
C2447       C  0.90470895  0.35191909  0.63858713     0.08000
C2448       C  0.90755715  0.32878871  0.65076219    -0.02100
Br2449     Br  0.88057255  0.28979222  0.64505500    -0.00700
Br2450     Br  0.93585817  0.30305384  0.68294437    -0.00700
Br2451     Br  0.92911546  0.41035956  0.62091633    -0.00700
Br2452     Br  0.96889108  0.42414549  0.67281730    -0.00700
C2453       C  0.53124552  0.17276213  0.82169622    -0.01800
C2454       C  0.53768525  0.17147628  0.84738767     0.07900
C2455       C  0.56440611  0.17083562  0.85323386    -0.01900
C2456       C  0.58308378  0.16984367  0.83355814    -0.01900
C2457       C  0.57370594  0.16485508  0.80818839     0.08000
C2458       C  0.54768308  0.16700896  0.80232251    -0.02100
Br2459     Br  0.53287819  0.16121559  0.76855730    -0.00700
Br2460     Br  0.00215252  0.18568369  0.81280657    -0.00700
Br2461     Br  0.62229011  0.17703983  0.84122679    -0.00700
Br2462     Br  0.57556974  0.16979673  0.88796578    -0.00700
C2463       C  0.66112847  0.04205851  0.83038978    -0.01800
C2464       C  0.65126209  0.04404774  0.85513677     0.07900
C2465       C  0.64329817  0.06667927  0.86102464    -0.01900
C2466       C  0.64460609  0.08582518  0.84185907    -0.01900
C2467       C  0.64646586  0.07831637  0.81595376     0.08000
C2468       C  0.65310562  0.05456296  0.81054339    -0.02100
Br2469     Br  0.64790603  0.03563513  0.77767363    -0.00700
Br2470     Br  0.69086018  0.52865409  0.82434219    -0.00700
Br2471     Br  0.64770040  0.12328625  0.85173864    -0.00700
Br2472     Br  0.63283257  0.07278603  0.89536498    -0.00700
C2473       C  0.69299853  0.08080318  0.68107156    -0.01800
C2474       C  0.66632270  0.07867421  0.69115114     0.07900
C2475       C  0.64114307  0.05512473  0.68376235    -0.01900
C2476       C  0.64209345  0.03863324  0.66255651    -0.01900
C2477       C  0.66832426  0.03773244  0.65471698     0.08000
C2478       C  0.69407289  0.05863181  0.66518323    -0.02100
Br2479     Br  0.73094732  0.05790907  0.65737798    -0.00700
Br2480     Br  0.72748049  0.11492645  0.68672349    -0.00700
Br2481     Br  0.61113809  0.52938625  0.63923440    -0.00700
Br2482     Br  0.60456151  0.04713800  0.70044696    -0.00700
C2483       C  0.54242004  0.16245242  0.67618062    -0.01800
C2484       C  0.54926589  0.16899191  0.65045431     0.07900
C2485       C  0.57795542  0.17541574  0.64181001    -0.01900
C2486       C  0.59911465  0.17724933  0.65926175    -0.01900
C2487       C  0.59057520  0.16607083  0.68364569     0.08000
C2488       C  0.56139700  0.15627155  0.69095787    -0.02100
Br2489     Br  0.54570907  0.12870032  0.71733637    -0.00700
Br2490     Br  0.51002430  0.16600533  0.69271757    -0.00700
Br2491     Br  0.63929959  0.19362399  0.64938971    -0.00700
Br2492     Br  0.58852173  0.17882038  0.60617757    -0.00700
C2493       C  0.94092864  0.10318397  0.81779837    -0.01800
C2494       C  0.95433686  0.08437251  0.81340124     0.07900
C2495       C  0.97747568  0.08637887  0.82859707    -0.01900
C2496       C  0.98706388  0.10696961  0.84822067    -0.01900
C2497       C  0.97554734  0.12755772  0.85122880     0.08000
C2498       C  0.95160073  0.12492088  0.83648653    -0.02100
Br2499     Br  0.93315901  0.15088014  0.84145453    -0.00700
Br2500     Br  0.90779349  0.09887926  0.79817745    -0.00700
Br2501     Br  0.01335266  0.10457219  0.87282473    -0.00700
Br2502     Br  0.99585584  0.06059373  0.82261241    -0.00700
C2503       C  0.89475349  0.43247650  0.83234671    -0.01800
C2504       C  0.87364114  0.43690547  0.81835882     0.07900
C2505       C  0.84443417  0.42199908  0.82536451    -0.01900
C2506       C  0.83620755  0.39960547  0.84302055    -0.01900
C2507       C  0.85745797  0.39433296  0.85629251     0.08000
C2508       C  0.88662411  0.41300310  0.85246332    -0.02100
Br2509     Br  0.91524372  0.41396186  0.87620231    -0.00700
Br2510     Br  0.93505593  0.45283954  0.82382713    -0.00700
Br2511     Br  0.79577579  0.37537193  0.84735109    -0.00700
Br2512     Br  0.81589060  0.43309169  0.81152105    -0.00700
C2513       C  0.94789971  0.09183903  0.67485299    -0.01800
C2514       C  0.96340569  0.07567709  0.68089596     0.07900
C2515       C  0.99001952  0.08143665  0.66852619    -0.01900
C2516       C  0.00049579  0.10262940  0.64972799    -0.01900
C2517       C  0.98667748  0.12111241  0.64583082     0.08000
C2518       C  0.96003948  0.11529833  0.65862478    -0.02100
Br2519     Br  0.94106033  0.14092191  0.65672350    -0.00700
Br2520     Br  0.91019813  0.08243299  0.68990744    -0.00700
Br2521     Br  0.03250457  0.10469118  0.62842381    -0.00700
Br2522     Br  0.01283500  0.06134049  0.67820760    -0.00700
C2523       C  0.87215228  0.37929954  0.67388702    -0.01800
C2524       C  0.86499116  0.38332072  0.64903756     0.07900
C2525       C  0.86320982  0.40961913  0.64377130    -0.01900
C2526       C  0.86753261  0.43014249  0.66329718    -0.01900
C2527       C  0.88043071  0.42804728  0.68608727     0.08000
C2528       C  0.88418964  0.40287020  0.69041267    -0.02100
Br2529     Br  0.90848295  0.40142125  0.71701748    -0.00700
Br2530     Br  0.86150969  0.34167515  0.68711256    -0.00700
Br2531     Br  0.85572109  0.46091800  0.65879614    -0.00700
Br2532     Br  0.85774924  0.41981393  0.60987191    -0.00700
C2533       C  0.96192515  0.16406895  0.55462594    -0.01800
C2534       C  0.96922358  0.17748224  0.57861064     0.07900
C2535       C  0.95280295  0.19178868  0.58905522    -0.01900
C2536       C  0.92901093  0.19170628  0.57573750    -0.01900
C2537       C  0.92343258  0.17979594  0.55102354     0.08000
C2538       C  0.94190431  0.16866040  0.53986368    -0.02100
Br2539     Br  0.94087996  0.16100765  0.50394805    -0.00700
Br2540     Br  0.97238544  0.13352382  0.54420962    -0.00700
Br2541     Br  0.90290103  0.20564639  0.59200087    -0.00700
Br2542     Br  0.96015444  0.20793295  0.62294781    -0.00700
C2543       C  0.80232794  0.06221695  0.45307145    -0.01800
C2544       C  0.82717268  0.08051418  0.46637201     0.07900
C2545       C  0.85258676  0.07597775  0.46344748    -0.01900
C2546       C  0.85304896  0.05321966  0.44836934    -0.01900
C2547       C  0.82834129  0.03503043  0.43491847     0.08000
C2548       C  0.80327448  0.04030471  0.43678439    -0.02100
Br2549     Br  0.77102115  0.01961030  0.41539185    -0.00700
Br2550     Br  0.76638852  0.06609004  0.45763853    -0.00700
Br2551     Br  0.88835193  0.04754629  0.44577035    -0.00700
Br2552     Br  0.88786163  0.10201085  0.47856374    -0.00700
C2553       C  0.75269460  0.04838051  0.54496361    -0.01800
C2554       C  0.75008495  0.07435799  0.54114314     0.07900
C2555       C  0.72458021  0.07660735  0.54906111    -0.01900
C2556       C  0.70240770  0.05328598  0.56085036    -0.01900
C2557       C  0.70776689  0.02994744  0.56966937     0.08000
C2558       C  0.73332721  0.02772795  0.56129509    -0.02100
Br2559     Br  0.74573191  0.00050725  0.57522355    -0.00700
Br2560     Br  0.78355264  0.04135301  0.52854820    -0.00700
Br2561     Br  0.66541030  0.55471229  0.56667600    -0.00700
Br2562     Br  0.72168081  0.11281500  0.54805521    -0.00700
C2563       C  0.93025913  0.23671063  0.43301882    -0.01800
C2564       C  0.91977227  0.24661721  0.45438076     0.07900
C2565       C  0.93322639  0.27566180  0.46122320    -0.01900
C2566       C  0.95300731  0.29536922  0.44439440    -0.01900
C2567       C  0.96415044  0.28584791  0.42298341     0.08000
C2568       C  0.95282603  0.25602895  0.41781781    -0.02100
Br2569     Br  0.96507411  0.24155367  0.38799055    -0.00700
Br2570     Br  0.91281966  0.19653339  0.42432969    -0.00700
Br2571     Br  0.95806804  0.33446310  0.44749239    -0.00700
Br2572     Br  0.92444421  0.28849866  0.49360750    -0.00700
C2573       C  0.71668888  0.13895654  0.45873712    -0.01800
C2574       C  0.74379427  0.16069288  0.45248623     0.07900
C2575       C  0.74529199  0.18134018  0.43456143    -0.01900
C2576       C  0.72005104  0.18151076  0.42444883    -0.01900
C2577       C  0.69269004  0.16098331  0.43185599     0.08000
C2578       C  0.69137138  0.13882244  0.44822532    -0.02100
Br2579     Br  0.65537024  0.10618970  0.45433297    -0.00700
Br2580     Br  0.71381892  0.10862265  0.48100477    -0.00700
Br2581     Br  0.72375228  0.20717416  0.39717705    -0.00700
Br2582     Br  0.78226675  0.20764260  0.42125212    -0.00700
C2583       C  0.82833548  0.26900459  0.57460876    -0.01800
C2584       C  0.84184096  0.29801075  0.56754376     0.07900
C2585       C  0.85397089  0.30447867  0.54295096    -0.01900
C2586       C  0.84977583  0.28259124  0.52486019    -0.01900
C2587       C  0.83864406  0.25375136  0.53247788     0.08000
C2588       C  0.82734202  0.24706488  0.55740702    -0.02100
Br2589     Br  0.80912315  0.20772919  0.56777250    -0.00700
Br2590     Br  0.81372158  0.25920803  0.60872886    -0.00700
Br2591     Br  0.85935659  0.29312528  0.48976009    -0.00700
Br2592     Br  0.88133040  0.34247967  0.53514682    -0.00700
C2593       C  0.73839406  0.05781115  0.91679607    -0.01800
C2594       C  0.71004158  0.04361012  0.92662458     0.07900
C2595       C  0.70344993  0.05216895  0.95070927    -0.01900
C2596       C  0.72548925  0.07054662  0.96634034    -0.01900
C2597       C  0.75273215  0.08674893  0.95576189     0.08000
C2598       C  0.75928634  0.08016286  0.93093412    -0.02100
Br2599     Br  0.79668407  0.10234360  0.91620101    -0.00700
Br2600     Br  0.74747887  0.04996240  0.88249902    -0.00700
Br2601     Br  0.71774306  0.07397151  0.00190270    -0.00700
Br2602     Br  0.66503142  0.04820678  0.95878726    -0.00700
C2603       C  0.73292151  0.17592802  0.08206810    -0.01800
C2604       C  0.70350184  0.16279751  0.07539667     0.07900
C2605       C  0.69612354  0.14622337  0.05294981    -0.01900
C2606       C  0.71724947  0.14776929  0.03479718    -0.01900
C2607       C  0.74677582  0.16090502  0.04095290     0.08000
C2608       C  0.75447760  0.17500946  0.06487561    -0.02100
Br2609     Br  0.79456931  0.19578101  0.07294914    -0.00700
Br2610     Br  0.74368453  0.19279963  0.11539972    -0.00700
Br2611     Br  0.70456819  0.13354599  0.00101580    -0.00700
Br2612     Br  0.65793018  0.11642416  0.04955930    -0.00700
C2613       C  0.93063355  0.15770347  0.96645623    -0.01800
C2614       C  0.91469287  0.17438339  0.96205272     0.07900
C2615       C  0.92165244  0.19146532  0.93999950    -0.01900
C2616       C  0.94456586  0.19268227  0.92368998    -0.01900
C2617       C  0.96032264  0.17632135  0.92851714     0.08000
C2618       C  0.95102013  0.15671189  0.94846805    -0.02100
Br2619     Br  0.96198597  0.12488380  0.94886361    -0.00700
Br2620     Br  0.92757365  0.13737024  0.99768847    -0.00700
Br2621     Br  0.95135184  0.21334196  0.89239177    -0.00700
Br2622     Br  0.89933161  0.21230529  0.93063500    -0.00700
C2623       C  0.80463986  0.06419204  0.06874041    -0.01800
C2624       C  0.82230194  0.07493003  0.04715513     0.07900
C2625       C  0.83876156  0.06054832  0.03735703    -0.01900
C2626       C  0.84132014  0.03879203  0.05125482    -0.01900
C2627       C  0.82359304  0.02763468  0.07281569     0.08000
C2628       C  0.80493585  0.04032507  0.08126847    -0.02100
Br2629     Br  0.78390135  0.02884440  0.11280814    -0.00700
Br2630     Br  0.78285114  0.08420777  0.08306084    -0.00700
Br2631     Br  0.87407146  0.03001955  0.04402651    -0.00700
Br2632     Br  0.85909830  0.07155024  0.00523535    -0.00700
C2633       C  0.94064666  0.24260884  0.06595766    -0.01800
C2634       C  0.92919448  0.24752071  0.04320491     0.07900
C2635       C  0.94149185  0.27490662  0.03268523    -0.01900
C2636       C  0.96189981  0.29796015  0.04650010    -0.01900
C2637       C  0.97363904  0.29331752  0.06926290     0.08000
C2638       C  0.96319617  0.26509703  0.07838711    -0.02100
Br2639     Br  0.97681219  0.25759315  0.11011943    -0.00700
Br2640     Br  0.92388035  0.20561021  0.08188115    -0.00700
Br2641     Br  0.46839567  0.33579626  0.03651883    -0.00700
Br2642     Br  0.93138357  0.28066482  0.99883697    -0.00700
C2643       C  0.84881671  0.28468081  0.96379688    -0.01800
C2644       C  0.83334614  0.25589896  0.95679374     0.07900
C2645       C  0.81685375  0.24922613  0.93442725    -0.01900
C2646       C  0.81557955  0.27113650  0.91950159    -0.01900
C2647       C  0.83118603  0.30016315  0.92644464     0.08000
C2648       C  0.84934728  0.30654612  0.94780940    -0.02100
Br2649     Br  0.87939634  0.34405991  0.95261140    -0.00700
Br2650     Br  0.86806186  0.29426441  0.99596296    -0.00700
Br2651     Br  0.79505268  0.26112942  0.88789239    -0.00700
Br2652     Br  0.79717083  0.20988347  0.92329928    -0.00700
O2653       O  0.85546568  0.62050954  0.03560087    -0.80800
O2654       O  0.85526496  0.72889885  0.97862206    -0.65500
O2655       O  0.84641205  0.66964203  0.02617280    -1.12100
C2656       C  0.77186460  0.61358260  0.96860535     1.06000
O2657       O  0.80832797  0.71509583  0.98131494    -0.78700
O2658       O  0.76747813  0.66810240  0.99968384    -0.66300
Ni2659     Ni  0.87844377  0.66051559  0.03135777     1.34900
C2660       C  0.76889606  0.66014203  0.02200548     0.84800
O2661       O  0.88280899  0.72746246  0.02286709    -0.79300
O2662       O  0.90616165  0.69974794  0.02917227    -0.89600
C2663       C  0.83263489  0.73243385  0.97317712     0.84400
O2664       O  0.88160916  0.65366931  0.99610347    -0.67800
O2665       O  0.77440619  0.63698393  0.95875928    -0.87000
C2666       C  0.89149862  0.67385459  0.98057503     0.85200
C2667       C  0.90452466  0.72376441  0.03095023     1.06800
H2668       H  0.83230592  0.66450869  0.96933376     0.38600
O2669       O  0.82335752  0.66980190  0.98377109    -1.09700
O2670       O  0.78771731  0.65107061  0.02825025    -0.66400
Ni2671     Ni  0.81494152  0.64077952  0.00824426     1.26300
O2672       O  0.88319825  0.69420123  0.98196479    -0.66600
O2673       O  0.78442365  0.61228084  0.98891566    -0.78900
C2674       C  0.82896768  0.60402511  0.03793320     0.84600
O2675       O  0.80918267  0.61176085  0.03242429    -0.66100
Ni2676     Ni  0.79215570  0.67603446  0.97044589     1.27400
Ni2677     Ni  0.85296534  0.69964907  0.00243206     1.26100
H2678       H  0.83988287  0.67438182  0.04245884     0.39100
O2679       O  0.78791558  0.68873067  0.47205272    -0.80800
O2680       O  0.88769596  0.69256012  0.53342037    -0.65500
O2681       O  0.83464635  0.67631354  0.47954926    -1.12100
C2682       C  0.77578931  0.59950711  0.53223178     1.06000
O2683       O  0.88060836  0.64712418  0.53236398    -0.78700
O2684       O  0.83833822  0.60511361  0.50596837    -0.66300
Ni2685     Ni  0.82834222  0.70582449  0.46381178     1.34900
C2686       C  0.82625300  0.60284676  0.48469646     0.84800
O2687       O  0.89195590  0.71579706  0.48748220    -0.79300
O2688       O  0.86882066  0.72458428  0.45499670    -0.89600
C2689       C  0.89561408  0.67302400  0.53875520     0.84400
O2690       O  0.83298421  0.73109470  0.49203635    -0.67800
O2691       O  0.79956174  0.60294696  0.54227196    -0.87000
C2692       C  0.84034424  0.73126540  0.51484346     0.85200
C2693       C  0.89186947  0.72788903  0.46653125     1.06800
H2694       H  0.82409668  0.66340040  0.53723477     0.38600
O2695       O  0.83095666  0.65550329  0.52314028    -1.09700
O2696       O  0.81308019  0.61822314  0.47886997    -0.66400
Ni2697     Ni  0.80338448  0.64658926  0.49679671     1.26300
O2698       O  0.84981498  0.71359772  0.52289690    -0.66600
O2699       O  0.77361346  0.61587053  0.51514276    -0.78900
C2700       C  0.77066539  0.66372199  0.46535559     0.84600
O2701       O  0.77623339  0.64239066  0.47040904    -0.66100
Ni2702     Ni  0.83957664  0.62613363  0.53662277     1.27400
Ni2703     Ni  0.86157838  0.68598564  0.50617252     1.26100
H2704       H  0.84171030  0.66756776  0.46619004     0.39100
N2705       N  0.91958030  0.50422309  0.71048866    -0.36600
N2706       N  0.89016450  0.96346187  0.75091617    -0.57100
N2707       N  0.91332049  0.50923241  0.78840085    -0.36600
N2708       N  0.94399935  0.54973021  0.74816468    -0.57100
C2709       C  0.91159459  0.97910992  0.69749524     0.27000
C2710       C  0.93864435  0.52493897  0.69563884     0.27000
C2711       C  0.89831636  0.98754388  0.80423286     0.27000
C2712       C  0.92508521  0.53336400  0.80269168     0.27000
C2713       C  0.87886891  0.94652759  0.73040192     0.35600
C2714       C  0.87667165  0.94852736  0.77172957     0.35600
C2715       C  0.95444802  0.56546278  0.72710662     0.35600
C2716       C  0.95069468  0.56826661  0.76812381     0.35600
C2717       C  0.92588541  0.98404940  0.67413878    -0.21800
C2718       C  0.94222728  0.51294320  0.67270874    -0.21800
C2719       C  0.90043020  0.99814387  0.82892472    -0.21800
C2720       C  0.91716381  0.52695129  0.82795635    -0.21800
C2721       C  0.85723858  0.92095670  0.73820202    -0.22900
C2722       C  0.85639833  0.92193590  0.76427049    -0.22900
C2723       C  0.96830538  0.59409673  0.73380774    -0.22900
C2724       C  0.96602976  0.59584445  0.75970256    -0.22900
C2725       C  0.89027153  0.95218127  0.70523156    -0.18200
C2726       C  0.95221162  0.55450221  0.70188477    -0.18200
C2727       C  0.94293604  0.56109318  0.79389496    -0.18200
C2728       C  0.88282693  0.95833300  0.79733036    -0.18200
H2729       H  0.92423907  0.96856468  0.65928267     0.14700
H2730       H  0.95541939  0.52373153  0.65659749     0.14700
H2731       H  0.89076465  0.98637677  0.84593623     0.14700
H2732       H  0.92288064  0.54147943  0.84414789     0.14700
H2733       H  0.84429586  0.90283191  0.72645561     0.12900
H2734       H  0.84249702  0.90474822  0.77619643     0.12900
H2735       H  0.97891518  0.61193469  0.72136693     0.12900
H2736       H  0.97415211  0.61531140  0.77099918     0.12900
H2737       H  0.90999160  0.50752299  0.72711920     0.26200
H2738       H  0.91657753  0.50755864  0.76917190     0.26200
N2739       N  0.64134515  0.63676820  0.70930420    -0.36600
N2740       N  0.65118550  0.60693726  0.75063038    -0.57100
N2741       N  0.61902433  0.62711700  0.78566825    -0.36600
N2742       N  0.60980767  0.65766150  0.74650700    -0.57100
C2743       C  0.64747902  0.61659681  0.69672597     0.27000
C2744       C  0.62330115  0.64294229  0.69464176     0.27000
C2745       C  0.61879302  0.60368277  0.79679635     0.27000
C2746       C  0.59579636  0.63108759  0.79442620     0.27000
C2747       C  0.66932249  0.60413185  0.73284702     0.35600
C2748       C  0.66030017  0.60264974  0.77333963     0.35600
C2749       C  0.61251743  0.67373203  0.72607157     0.35600
C2750       C  0.60150388  0.66991401  0.76622035     0.35600
C2751       C  0.63472867  0.61142438  0.67303727    -0.21800
C2752       C  0.61878738  0.62735202  0.67205054    -0.21800
C2753       C  0.59462083  0.59202679  0.81248362    -0.21800
C2754       C  0.58023709  0.60961324  0.81119967    -0.21800
C2755       C  0.69062113  0.59863332  0.74432691    -0.22900
C2756       C  0.68584475  0.59934236  0.77015544    -0.22900
C2757       C  0.60689536  0.69718903  0.73297133    -0.22900
C2758       C  0.60062476  0.69515537  0.75870513    -0.22900
C2759       C  0.66331293  0.60208463  0.70673673    -0.18200
C2760       C  0.61119416  0.66255068  0.70123269    -0.18200
C2761       C  0.59051227  0.65536850  0.78910211    -0.18200
C2762       C  0.64209527  0.59548261  0.79513252    -0.18200
H2763       H  0.63586799  0.59699263  0.65821803     0.14700
H2764       H  0.60533695  0.62723527  0.65641787     0.14700
H2765       H  0.58865510  0.57355279  0.82441264     0.14700
H2766       H  0.56099333  0.60729092  0.82179771     0.14700
H2767       H  0.70719937  0.59357815  0.73531571     0.12900
H2768       H  0.69796980  0.59472657  0.78464116     0.12900
H2769       H  0.60540587  0.71286468  0.72039587     0.12900
H2770       H  0.59374868  0.70916330  0.76995666     0.12900
H2771       H  0.64966704  0.64650653  0.72666423     0.26200
H2772       H  0.63640935  0.64184587  0.77552745     0.26200
N2773       N  0.50257573  0.90281596  0.78932470    -0.36600
N2774       N  0.96513486  0.87429392  0.74700974    -0.57100
N2775       N  0.51406307  0.89745759  0.71285353    -0.36600
N2776       N  0.55162869  0.92567729  0.75490605    -0.57100
C2777       C  0.97603723  0.89611538  0.79972642     0.27000
C2778       C  0.52166041  0.92345131  0.80437243     0.27000
C2779       C  0.99418897  0.87983815  0.69659313     0.27000
C2780       C  0.54002688  0.90507703  0.70123713     0.27000
C2781       C  0.94616616  0.86271931  0.76629991     0.35600
C2782       C  0.95146769  0.86248426  0.72514966     0.35600
C2783       C  0.56523477  0.93914111  0.77638155     0.35600
C2784       C  0.57014718  0.93713326  0.73515070     0.35600
C2785       C  0.97837386  0.91307322  0.82117303    -0.21800
C2786       C  0.50701097  0.93041136  0.82397730    -0.21800
C2787       C  0.00755266  0.87576880  0.67463355    -0.21800
C2788       C  0.53659183  0.89121762  0.67777456    -0.21800
C2789       C  0.92085790  0.84210667  0.75667054    -0.22900
C2790       C  0.92375176  0.84290045  0.73063805    -0.22900
C2791       C  0.59281639  0.95865340  0.76962206    -0.22900
C2792       C  0.59511953  0.95850830  0.74389516    -0.22900
C2793       C  0.94996353  0.87359448  0.79168633    -0.18200
C2794       C  0.55201708  0.93622791  0.80121462    -0.18200
C2795       C  0.56596191  0.92728798  0.70954654    -0.18200
C2796       C  0.96414431  0.86836732  0.70047862    -0.18200
H2797       H  0.96123971  0.91258161  0.83387513     0.14700
H2798       H  0.51606449  0.94623753  0.83893149     0.14700
H2799       H  0.99737093  0.86309762  0.65804308     0.14700
H2800       H  0.55317814  0.89324306  0.66379086     0.14700
H2801       H  0.90157955  0.82903988  0.76712480     0.12900
H2802       H  0.90737130  0.83002138  0.71746063     0.12900
H2803       H  0.61009650  0.97309905  0.78082193     0.12900
H2804       H  0.61376185  0.97233470  0.73313453     0.12900
H2805       H  0.50761561  0.89160982  0.77468071     0.26200
H2806       H  0.50971319  0.90713761  0.72898243     0.26200
C2807       C  0.99107543  0.67351391  0.59430283     0.02300
C2808       C  0.51916131  0.69502839  0.59712081     0.02300
C2809       C  0.53567555  0.69364791  0.61732173    -0.18200
C2810       C  0.52724027  0.66953012  0.63256559     0.02300
C2811       C  0.99953696  0.64664254  0.62887069     0.02300
C2812       C  0.98211835  0.64924097  0.60952695    -0.18200
H2813       H  0.96078597  0.63248621  0.60676646     0.04300
H2814       H  0.55667082  0.71101776  0.62004223     0.04300
C2815       C  0.68997552  0.51311507  0.59169511     0.02300
C2816       C  0.67576168  0.98265596  0.59327797     0.02300
C2817       C  0.65728282  0.97091567  0.61410620    -0.18200
C2818       C  0.65356120  0.98773958  0.63394040     0.02300
C2819       C  0.66938337  0.51779841  0.63367549     0.02300
C2820       C  0.68697157  0.52967332  0.61242499    -0.18200
H2821       H  0.69832576  0.55272196  0.61179980     0.04300
H2822       H  0.64521940  0.94792588  0.61486650     0.04300
C2823       C  0.83435362  0.82309484  0.90799986     0.02300
C2824       C  0.82225673  0.84356286  0.91128742     0.02300
C2825       C  0.83052926  0.86638774  0.89421291    -0.18200
C2826       C  0.84947373  0.86909356  0.87352757     0.02300
C2827       C  0.86050148  0.84781422  0.86976441     0.02300
C2828       C  0.85208123  0.82504747  0.88670477    -0.18200
H2829       H  0.86018332  0.80873397  0.88365760     0.04300
H2830       H  0.82204296  0.88241536  0.89717089     0.04300
C2831       C  0.84783847  0.82117299  0.58720651     0.02300
C2832       C  0.82918785  0.83492602  0.59286418     0.02300
C2833       C  0.83487627  0.85330781  0.61405390    -0.18200
C2834       C  0.85965676  0.86069045  0.62870007     0.02300
C2835       C  0.87880437  0.84728158  0.62284741     0.02300
C2836       C  0.87260693  0.82818624  0.60192202    -0.18200
H2837       H  0.88714306  0.81819605  0.59715716     0.04300
H2838       H  0.81977027  0.86260134  0.61892207     0.04300
C2839       C  0.68626738  0.52585189  0.90948198     0.02300
C2840       C  0.67176556  0.99567411  0.91017613     0.02300
C2841       C  0.64815150  0.98145151  0.89421282    -0.18200
C2842       C  0.63838024  0.99629465  0.87746535     0.02300
C2843       C  0.65497294  0.52638479  0.87536726     0.02300
C2844       C  0.67787477  0.54050239  0.89175183    -0.18200
H2845       H  0.68985595  0.56345204  0.89032688     0.04300
H2846       H  0.63785311  0.95834934  0.89444031     0.04300
C2847       C  0.98172260  0.67490665  0.90937306     0.02300
C2848       C  0.51106910  0.69493900  0.90787222     0.02300
C2849       C  0.52775761  0.69344256  0.88680133    -0.18200
C2850       C  0.51731034  0.67202307  0.86810527     0.02300
C2851       C  0.98833548  0.65148425  0.87002750     0.02300
C2852       C  0.97116549  0.65332254  0.89060814    -0.18200
H2853       H  0.94902454  0.63771831  0.89200036     0.04300
H2854       H  0.54972666  0.70935808  0.88502814     0.04300
O2855       O  0.62191107  0.85541364  0.46808477    -0.80800
O2856       O  0.72677968  0.85305112  0.53079912    -0.65500
O2857       O  0.67024122  0.84484155  0.48032619    -1.12100
C2858       C  0.60814492  0.77387383  0.53668106     1.06000
O2859       O  0.71131244  0.80613003  0.53216325    -0.78700
O2860       O  0.66522700  0.76737504  0.51055144    -0.66300
Ni2861     Ni  0.66256272  0.87707962  0.47293765     1.34900
C2862       C  0.65815601  0.76793543  0.48773694     0.84800
O2863       O  0.72861952  0.87864044  0.48517018    -0.79300
O2864       O  0.70254870  0.90296412  0.47526783    -0.89600
C2865       C  0.72988317  0.83086200  0.53776730     0.84400
O2866       O  0.65539940  0.88348275  0.50760781    -0.67800
O2867       O  0.63054807  0.77552701  0.54818651    -0.87000
C2868       C  0.67513403  0.89215051  0.52392299     0.85200
C2869       C  0.72611302  0.89995772  0.47521092     1.06800
H2870       H  0.66155525  0.83312353  0.53744010     0.38600
O2871       O  0.66711723  0.82328057  0.52397203    -1.09700
O2872       O  0.64938001  0.78642745  0.48027461    -0.66400
Ni2873     Ni  0.63953715  0.81516539  0.49770923     1.26300
O2874       O  0.69443841  0.88233461  0.52411919    -0.66600
O2875       O  0.60880769  0.78655737  0.51612204    -0.78900
C2876       C  0.60564987  0.82917492  0.46443167     0.84600
O2877       O  0.61265986  0.80950946  0.47136173    -0.66100
Ni2878     Ni  0.67091321  0.79199955  0.53952333     1.27400
Ni2879     Ni  0.69887897  0.85083708  0.50554483     1.26100
H2880       H  0.67541394  0.83762346  0.46474130     0.39100
O2881       O  0.69171766  0.79162001  0.01791052    -0.80800
O2882       O  0.69516768  0.89396355  0.96756951    -0.65500
O2883       O  0.67600180  0.83602993  0.01671662    -1.12100
C2884       C  0.59703630  0.78478624  0.96648078     1.06000
O2885       O  0.64954653  0.88809509  0.96533668    -0.78700
O2886       O  0.62056271  0.85374238  0.00326368    -0.66300
Ni2887     Ni  0.70582602  0.82947269  0.03195608     1.34900
C2888       C  0.60874529  0.83298143  0.01798523     0.84800
O2889       O  0.71734595  0.89254664  0.01247760    -0.79300
O2890       O  0.72130584  0.86778187  0.04573607    -0.89600
C2891       C  0.67636549  0.90311511  0.96230831     0.84400
O2892       O  0.73460141  0.84052468  0.00574554    -0.67800
O2893       O  0.59625350  0.80922506  0.96829995    -0.87000
C2894       C  0.73355646  0.84594081  0.98257815     0.85200
C2895       C  0.72699073  0.89127389  0.03438451     1.06800
H2896       H  0.66224268  0.83273947  0.95747684     0.38600
O2897       O  0.65554200  0.83736923  0.97352097    -1.09700
O2898       O  0.61609115  0.81189757  0.01675554    -0.66400
Ni2899     Ni  0.64721077  0.80673674  0.99682807     1.26300
O2900       O  0.71391063  0.85277825  0.97420044    -0.66600
O2901       O  0.61792248  0.78000346  0.97516688    -0.78900
C2902       C  0.66733262  0.77273776  0.02419463     0.84600
O2903       O  0.64445702  0.77630738  0.01951365    -0.66100
Ni2904     Ni  0.62491687  0.84819921  0.96790651     1.27400
Ni2905     Ni  0.68693325  0.86505852  0.99227740     1.26100
H2906       H  0.66636717  0.84158593  0.03042365     0.39100
N2907       N  0.99245898  0.59591576  0.21297378    -0.36600
N2908       N  0.94893058  0.57031804  0.25166422    -0.57100
N2909       N  0.99131009  0.59953101  0.28970044    -0.36600
N2910       N  0.53508453  0.62712494  0.25077278    -0.57100
C2911       C  0.96759781  0.58959084  0.20052788     0.27000
C2912       C  0.51365466  0.61644966  0.19973597     0.27000
C2913       C  0.96709643  0.58813590  0.30427312     0.27000
C2914       C  0.51245075  0.61811981  0.30451413     0.27000
C2915       C  0.93427080  0.55627533  0.23105119     0.35600
C2916       C  0.93433998  0.55556217  0.27197166     0.35600
C2917       C  0.55192787  0.62710772  0.23038144     0.35600
C2918       C  0.55189062  0.63281781  0.27155963     0.35600
C2919       C  0.97267496  0.60683715  0.17965110    -0.21800
C2920       C  0.50165212  0.62422293  0.17942590    -0.21800
C2921       C  0.97270819  0.59995275  0.32848522    -0.21800
C2922       C  0.50130241  0.61804482  0.32888390    -0.21800
C2923       C  0.91007653  0.53252982  0.23813917    -0.22900
C2924       C  0.91019494  0.53192671  0.26421431    -0.22900
C2925       C  0.57910100  0.63183119  0.23837996    -0.22900
C2926       C  0.57980154  0.63787156  0.26383362    -0.22900
C2927       C  0.94121614  0.56664943  0.20629590    -0.18200
C2928       C  0.54334409  0.62521549  0.20464949    -0.18200
C2929       C  0.54209028  0.63169227  0.29742576    -0.18200
C2930       C  0.94104423  0.56500295  0.29729472    -0.18200
H2931       H  0.95718437  0.60659482  0.16582188     0.14700
H2932       H  0.51213092  0.64004354  0.16536824     0.14700
H2933       H  0.95818559  0.59476568  0.34473428     0.14700
H2934       H  0.51239025  0.62849653  0.34589754     0.14700
H2935       H  0.89360586  0.51796073  0.22583366     0.12900
H2936       H  0.89377674  0.51662468  0.27611253     0.12900
H2937       H  0.59718210  0.63246262  0.22693500     0.12900
H2938       H  0.59883597  0.64409516  0.27515754     0.12900
H2939       H  0.99555412  0.58405501  0.22750091     0.26200
H2940       H  0.99433639  0.59199309  0.27191496     0.26200
N2941       N  0.87677387  0.86889789  0.28710600    -0.36600
N2942       N  0.86304911  0.90500255  0.25473685    -0.57100
N2943       N  0.87243148  0.87301399  0.21269517    -0.36600
N2944       N  0.88396249  0.83395835  0.24470443    -0.57100
C2945       C  0.86446213  0.88096526  0.30395162     0.27000
C2946       C  0.87862175  0.84649179  0.29841803     0.27000
C2947       C  0.85887084  0.88749969  0.20172100     0.27000
C2948       C  0.87305597  0.85319851  0.19569710     0.27000
C2949       C  0.86869785  0.92048656  0.27651370     0.35600
C2950       C  0.86672677  0.92334050  0.23574980     0.35600
C2951       C  0.89834692  0.82745764  0.26307626     0.35600
C2952       C  0.89382764  0.82773355  0.22232728     0.35600
C2953       C  0.85706201  0.86502775  0.32594876    -0.21800
C2954       C  0.86686185  0.84374477  0.32270978    -0.21800
C2955       C  0.84925644  0.87562054  0.17798890    -0.21800
C2956       C  0.85927911  0.85485221  0.17377728    -0.21800
C2957       C  0.87587168  0.94896649  0.27140766    -0.22900
C2958       C  0.87467117  0.95075774  0.24541397    -0.22900
C2959       C  0.91591621  0.81543187  0.25239976    -0.22900
C2960       C  0.91229091  0.81468729  0.22666129    -0.22900
C2961       C  0.86406037  0.90815874  0.30079640    -0.18200
C2962       C  0.89645467  0.83330955  0.28924622    -0.18200
C2963       C  0.89034653  0.83794812  0.19837064    -0.18200
C2964       C  0.86096086  0.91462806  0.21016662    -0.18200
H2965       H  0.84774934  0.86961203  0.34322271     0.14700
H2966       H  0.86668238  0.82883198  0.33695550     0.14700
H2967       H  0.83871149  0.88305824  0.16408451     0.14700
H2968       H  0.85756161  0.84366541  0.15597141     0.14700
H2969       H  0.88087945  0.96637003  0.28503630     0.12900
H2970       H  0.87858238  0.96976484  0.23484940     0.12900
H2971       H  0.93057451  0.80870224  0.26193250     0.12900
H2972       H  0.92386168  0.80757581  0.21265176     0.12900
H2973       H  0.88831232  0.87833788  0.27078594     0.26200
H2974       H  0.88555145  0.87983978  0.22850467     0.26200
C2975       C  0.83141742  0.51447866  0.41572784     0.02300
C2976       C  0.81823635  0.98410646  0.41757735     0.02300
C2977       C  0.82670590  0.96768420  0.40016601    -0.18200
C2978       C  0.84599247  0.98002002  0.38013543     0.02300
C2979       C  0.85848692  0.51005504  0.37784822     0.02300
C2980       C  0.85103874  0.52668780  0.39559761    -0.18200
H2981       H  0.86118693  0.54974597  0.39398569     0.04300
H2982       H  0.81673539  0.94457127  0.40132266     0.04300
N2983       N  0.58618821  0.99422598  0.28817897    -0.36600
N2984       N  0.55866190  0.95634078  0.24707038    -0.57100
N2985       N  0.57726051  0.00556268  0.21219048    -0.36600
N2986       N  0.60709442  0.54359356  0.25340932    -0.57100
C2987       C  0.58040010  0.96866811  0.29909105     0.27000
C2988       C  0.60590977  0.51482007  0.30266374     0.27000
C2989       C  0.56792271  0.98348171  0.19522070     0.27000
C2990       C  0.59169196  0.52986157  0.19896721     0.27000
C2991       C  0.54728969  0.93772850  0.26639820     0.35600
C2992       C  0.54460476  0.94325815  0.22572934     0.35600
C2993       C  0.61561566  0.55763564  0.27591663     0.35600
C2994       C  0.61105403  0.56367716  0.23558679     0.35600
C2995       C  0.59720234  0.97320012  0.32049366    -0.21800
C2996       C  0.61303176  0.50228805  0.32288461    -0.21800
C2997       C  0.57611272  0.99393055  0.17092523    -0.21800
C2998       C  0.59068580  0.52307169  0.17323969    -0.21800
C2999       C  0.52549031  0.91295823  0.25726440    -0.22900
C3000       C  0.52465199  0.91613736  0.23150064    -0.22900
C3001       C  0.62594639  0.58679429  0.27194941    -0.22900
C3002       C  0.62313446  0.59059768  0.24658484    -0.22900
C3003       C  0.55850017  0.94181605  0.29143836    -0.18200
C3004       C  0.61495648  0.54470416  0.29985217    -0.18200
C3005       C  0.60500768  0.55816054  0.20928869    -0.17000
C3006       C  0.55095365  0.95429352  0.20071637    -0.18200
H3007       H  0.59731782  0.95728984  0.33353384     0.14700
H3008       H  0.62762104  0.51310471  0.33812703     0.14700
H3009       H  0.57164028  0.98187890  0.15321489     0.14700
H3010       H  0.59953267  0.53750540  0.15759813     0.14700
H3011       H  0.51257082  0.89394958  0.26771330     0.12900
H3012       H  0.51158127  0.89999376  0.21827467     0.12900
H3013       H  0.63476225  0.60375976  0.28581851     0.12900
H3014       H  0.62948748  0.61087984  0.23730592     0.12900
H3015       H  0.57434440  0.99802244  0.27405147     0.26200
H3016       H  0.57178470  0.00429106  0.23134821     0.26200
C3017       C  0.83062754  0.50925691  0.09037291     0.02300
C3018       C  0.81533785  0.97903111  0.09193851     0.02300
C3019       C  0.82295789  0.96469176  0.11086669    -0.18200
C3020       C  0.84436648  0.97950137  0.12853939     0.02300
C3021       C  0.85973742  0.50943413  0.12678412     0.02300
C3022       C  0.85297553  0.52374022  0.10747007    -0.18200
H3023       H  0.86452700  0.54675179  0.10636708     0.04300
H3024       H  0.81132785  0.94174015  0.11246455     0.04300
C3025       C  0.65463229  0.67774990  0.41499520     0.02300
C3026       C  0.66718772  0.65753186  0.41633126     0.02300
C3027       C  0.65854806  0.63452962  0.39902377    -0.18200
C3028       C  0.63886095  0.63086324  0.37980493     0.02300
C3029       C  0.62605033  0.65091295  0.37788161     0.02300
C3030       C  0.63490347  0.67411592  0.39539862    -0.18200
H3031       H  0.62709012  0.69047101  0.39345491     0.04300
H3032       H  0.66855963  0.61957651  0.39973354     0.04300
C3033       C  0.66154209  0.67730795  0.08290310     0.02300
C3034       C  0.67955850  0.66416282  0.09172099     0.02300
C3035       C  0.67085540  0.64720550  0.11400112    -0.18200
C3036       C  0.64332234  0.64033091  0.12576802     0.02300
C3037       C  0.62733442  0.65347944  0.11598579     0.02300
C3038       C  0.63574625  0.67190605  0.09579466    -0.18200
H3039       H  0.62251733  0.68294286  0.09073003     0.04300
H3040       H  0.68563894  0.63936059  0.12162350     0.04300
C3041       C  0.98109269  0.80666724  0.40282689     0.02300
C3042       C  0.51152468  0.82284291  0.40251292     0.02300
C3043       C  0.52424987  0.84306458  0.38320583    -0.18200
C3044       C  0.50795941  0.84753546  0.36391137     0.02300
C3045       C  0.97781568  0.82998826  0.36339276     0.02300
C3046       C  0.96506264  0.81064664  0.38316369    -0.18200
H3047       H  0.94192661  0.79831874  0.38325059     0.04300
H3048       H  0.54728343  0.85586781  0.38341975     0.04300
C3049       C  0.98858225  0.81772069  0.08741130     0.02300
C3050       C  0.51721850  0.83894090  0.08488069     0.02300
C3051       C  0.52592688  0.86310610  0.10128681    -0.18200
C3052       C  0.50797147  0.86617577  0.12103928     0.02300
C3053       C  0.97953081  0.84411014  0.12392703     0.02300
C3054       C  0.97141210  0.82009224  0.10768614    -0.18200
H3055       H  0.95049735  0.80264774  0.11048899     0.04300
H3056       H  0.54754473  0.87955767  0.09906486     0.04300
C3057       C  0.53624815  0.92137928  0.33447025    -0.01800
C3058       C  0.54711397  0.91741262  0.31036264     0.07900
C3059       C  0.54766795  0.89034964  0.30509598    -0.01900
C3060       C  0.53380719  0.86713596  0.32184352    -0.01900
C3061       C  0.52289377  0.87158123  0.34565694     0.08000
C3062       C  0.52803540  0.89983514  0.35284281    -0.02100
Br3063     Br  0.02703640  0.91007347  0.38828602    -0.00700
Br3064     Br  0.52958196  0.95493257  0.34218763    -0.00700
Br3065     Br  0.53189956  0.82976920  0.31329373    -0.00700
Br3066     Br  0.56895614  0.88532622  0.27604631    -0.00700
C3067       C  0.54562792  0.89506637  0.15333515    -0.01800
C3068       C  0.52075014  0.89125470  0.13926363     0.07900
C3069       C  0.50778773  0.91062945  0.14378367    -0.01900
C3070       C  0.51729238  0.93100850  0.16390923    -0.01900
C3071       C  0.54089924  0.93340463  0.17879080     0.08000
C3072       C  0.55558003  0.91606781  0.17277011    -0.02100
Br3073     Br  0.58922046  0.92076405  0.19188951    -0.00700
Br3074     Br  0.56474220  0.86967135  0.14855259    -0.00700
Br3075     Br  0.99760195  0.95528158  0.17159833    -0.00700
Br3076     Br  0.97782259  0.91021570  0.12185280    -0.00700
C3077       C  0.65098657  0.58446841  0.32683078    -0.01800
C3078       C  0.62282702  0.56333485  0.32350386     0.07900
C3079       C  0.60139547  0.56137417  0.34194548    -0.01900
C3080       C  0.60694992  0.58275624  0.36094214    -0.01900
C3081       C  0.63387025  0.60629098  0.36173098     0.08000
C3082       C  0.65653081  0.60595218  0.34573880    -0.02100
Br3083     Br  0.69474612  0.63636378  0.34786478    -0.00700
Br3084     Br  0.68183815  0.58423865  0.30504820    -0.00700
Br3085     Br  0.57750878  0.58025327  0.38566552    -0.00700
Br3086     Br  0.56348922  0.53071192  0.34041313    -0.00700
C3087       C  0.63923975  0.58840480  0.17690432    -0.01800
C3088       C  0.61420089  0.58300264  0.19090632     0.07900
C3089       C  0.59523911  0.59573523  0.18347632    -0.01900
C3090       C  0.60379407  0.61942686  0.16441220    -0.01900
C3091       C  0.63022392  0.62072203  0.14900225     0.08000
C3092       C  0.64288066  0.60155920  0.15374471    -0.02100
Br3093     Br  0.65541903  0.58368966  0.12600233    -0.00700
Br3094     Br  0.66513536  0.57134582  0.18594324    -0.00700
Br3095     Br  0.56558026  0.66490072  0.14901824    -0.00700
Br3096     Br  0.55685575  0.57274908  0.19746705    -0.00700
C3097       C  0.93763782  0.85700657  0.31863900    -0.01800
C3098       C  0.91806034  0.83163496  0.30707819     0.07900
C3099       C  0.91932231  0.80559747  0.31312470    -0.01900
C3100       C  0.94138288  0.80574619  0.32898533    -0.01900
C3101       C  0.95842702  0.83087682  0.34288276     0.08000
C3102       C  0.95385338  0.85564621  0.33912042    -0.02100
Br3103     Br  0.96039472  0.88365219  0.36566625    -0.00700
Br3104     Br  0.94453950  0.89402623  0.30564979    -0.00700
Br3105     Br  0.94756825  0.77138366  0.33172152    -0.00700
Br3106     Br  0.89041400  0.76990350  0.30076221    -0.00700
C3107       C  0.94183516  0.85641290  0.18382046    -0.01800
C3108       C  0.91247064  0.84097400  0.17811440     0.07900
C3109       C  0.90551805  0.82792514  0.15397430    -0.01900
C3110       C  0.92734614  0.83431767  0.13525530    -0.01900
C3111       C  0.95675978  0.84462197  0.14261649     0.08000
C3112       C  0.96282211  0.85272903  0.16836507    -0.02100
Br3113     Br  0.49390585  0.84878828  0.18531432    -0.00700
Br3114     Br  0.95337467  0.88170017  0.21303385    -0.00700
Br3115     Br  0.91588300  0.83035382  0.10013202    -0.00700
Br3116     Br  0.86826890  0.79764391  0.14752650    -0.00700
C3117       C  0.83279632  0.95290093  0.33871711    -0.01800
C3118       C  0.85006781  0.96062028  0.36051745     0.07900
C3119       C  0.86916431  0.94768337  0.36449643    -0.01900
C3120       C  0.87505513  0.93183080  0.34475192    -0.01900
C3121       C  0.85791812  0.92416936  0.32270025     0.08000
C3122       C  0.83540077  0.93333416  0.32081451    -0.02100
Br3123     Br  0.80724247  0.91840984  0.29421699    -0.00700
Br3124     Br  0.80456544  0.96803496  0.33360912    -0.00700
Br3125     Br  0.90799680  0.92295207  0.34786432    -0.00700
Br3126     Br  0.88505299  0.94901201  0.39765331    -0.00700
C3127       C  0.83635852  0.94416553  0.19253813    -0.01800
C3128       C  0.85860430  0.93446923  0.19090691     0.07900
C3129       C  0.87612406  0.94012177  0.16873490    -0.01900
C3130       C  0.86859059  0.95106868  0.14735560    -0.01900
C3131       C  0.84876876  0.96350588  0.14986798     0.08000
C3132       C  0.83261501  0.96006750  0.17259116    -0.02100
Br3133     Br  0.80328119  0.97453042  0.17532482    -0.00700
Br3134     Br  0.80952430  0.93406013  0.22085641    -0.00700
Br3135     Br  0.88061042  0.94320387  0.11415598    -0.00700
Br3136     Br  0.91027014  0.93259182  0.16717250    -0.00700
C3137       C  0.87283902  0.53972683  0.33830144    -0.01800
C3138       C  0.87966782  0.52471936  0.35735199     0.07900
C3139       C  0.90753328  0.52532518  0.35766913    -0.01900
C3140       C  0.92617914  0.53558934  0.33673078    -0.01900
C3141       C  0.91945642  0.55051849  0.31764494     0.08000
C3142       C  0.89319769  0.55359702  0.31912150    -0.02100
Br3143     Br  0.88576915  0.57806791  0.29573069    -0.00700
Br3144     Br  0.83652894  0.54314612  0.33926884    -0.00700
Br3145     Br  0.96103423  0.52936639  0.33450854    -0.00700
Br3146     Br  0.92288474  0.01891745  0.38873815    -0.00700
C3147       C  0.89532586  0.55775941  0.18349038    -0.01800
C3148       C  0.92046996  0.55296348  0.18553838     0.07900
C3149       C  0.92637905  0.53550267  0.16741304    -0.01900
C3150       C  0.90840968  0.52463961  0.14645532    -0.01900
C3151       C  0.88156147  0.52633068  0.14595247     0.08000
C3152       C  0.87542126  0.54372287  0.16423177    -0.02100
Br3153     Br  0.84041171  0.54934389  0.16256656    -0.00700
Br3154     Br  0.88822551  0.58342765  0.20715820    -0.00700
Br3155     Br  0.92320703  0.51255118  0.11675469    -0.00700
Br3156     Br  0.95748856  0.52417929  0.17243129    -0.00700
C3157       C  0.58292254  0.65962567  0.35978490    -0.01800
C3158       C  0.60465601  0.64878207  0.35741186     0.07900
C3159       C  0.60621135  0.63597269  0.33396148    -0.01900
C3160       C  0.58172224  0.62473897  0.31907730    -0.01900
C3161       C  0.56390167  0.63929135  0.31823009     0.08000
C3162       C  0.56651224  0.65913802  0.33816864    -0.02100
Br3163     Br  0.54832578  0.68530300  0.33619748    -0.00700
Br3164     Br  0.57086973  0.67026815  0.39190619    -0.00700
Br3165     Br  0.57113060  0.58847476  0.30214956    -0.00700
Br3166     Br  0.64208897  0.65237027  0.31570171    -0.00700
C3167       C  0.55562723  0.61286824  0.15558601    -0.01800
C3168       C  0.56522729  0.63062164  0.18280535     0.07900
C3169       C  0.59588399  0.65848217  0.18405381    -0.01900
C3170       C  0.61560755  0.66893921  0.15910621    -0.01900
C3171       C  0.60512212  0.65192662  0.13242491     0.08000
C3172       C  0.57565586  0.62365553  0.13067237    -0.02100
Br3173     Br  0.56591417  0.60251130  0.09918184    -0.00700
Br3174     Br  0.51988700  0.58021047  0.15006566    -0.00700
Br3175     Br  0.65194387  0.70165266  0.16064467    -0.00700
Br3176     Br  0.60434086  0.68760515  0.21027574    -0.00700
C3177       C  0.68621338  0.72874947  0.07170402    -0.01800
C3178       C  0.66937910  0.70040771  0.06363790     0.07900
C3179       C  0.65219349  0.69612104  0.04171520    -0.01900
C3180       C  0.65211537  0.71956338  0.02825618    -0.01900
C3181       C  0.66713814  0.74754110  0.03767272     0.08000
C3182       C  0.68468542  0.75202187  0.05917942    -0.02100
Br3183     Br  0.70489372  0.79017141  0.07313628    -0.00700
Br3184     Br  0.70830430  0.73600131  0.10229474    -0.00700
Br3185     Br  0.63209473  0.71337793  0.99652775    -0.00700
Br3186     Br  0.62569035  0.65836650  0.03156451    -0.00700
C3187       C  0.57809094  0.81933827  0.05889532    -0.01800
C3188       C  0.58473628  0.83328743  0.03521156     0.07900
C3189       C  0.56855974  0.84889731  0.02813655    -0.01900
C3190       C  0.54832943  0.85224291  0.04508064    -0.01900
C3191       C  0.53951394  0.83590891  0.06725382     0.08000
C3192       C  0.55530413  0.82018270  0.07446309    -0.02100
Br3193     Br  0.54867509  0.80317709  0.10749510    -0.00700
Br3194     Br  0.60135703  0.80083848  0.07128148    -0.00700
Br3195     Br  0.53670771  0.88296481  0.03964083    -0.00700
Br3196     Br  0.57169609  0.86472524  0.99457184    -0.00700
C3197       C  0.77383287  0.93420577  0.03548127    -0.01800
C3198       C  0.74693123  0.91810043  0.04685934     0.07900
C3199       C  0.74114748  0.92538335  0.07165171    -0.01900
C3200       C  0.76276499  0.94743890  0.08542496    -0.01900
C3201       C  0.79099487  0.96118595  0.07510819     0.08000
C3202       C  0.79648207  0.95309702  0.05040935    -0.02100
Br3203     Br  0.83496900  0.96047812  0.03932894    -0.00700
Br3204     Br  0.78015539  0.93024044  0.99961085    -0.00700
Br3205     Br  0.75421063  0.95595653  0.11962965    -0.00700
Br3206     Br  0.70336945  0.90520543  0.08654528    -0.00700
C3207       C  0.66767110  0.75190632  0.44350914    -0.01800
C3208       C  0.65993932  0.74561287  0.46940274     0.07900
C3209       C  0.65362094  0.71745405  0.47760051    -0.01900
C3210       C  0.65130837  0.69561389  0.45981686    -0.01900
C3211       C  0.65955832  0.70180399  0.43409634     0.08000
C3212       C  0.66793351  0.73043562  0.42617690    -0.02100
Br3213     Br  0.67864466  0.74075078  0.39114788    -0.00700
Br3214     Br  0.67971398  0.79044983  0.43153860    -0.00700
Br3215     Br  0.63128318  0.65664367  0.47027097    -0.00700
Br3216     Br  0.64761770  0.70736119  0.51316674    -0.00700
C3217       C  0.56182796  0.83833536  0.45859209    -0.01800
C3218       C  0.57778155  0.82233900  0.45179918     0.07900
C3219       C  0.56953643  0.80383717  0.43039955    -0.01900
C3220       C  0.54633320  0.80242041  0.41538595    -0.01900
C3221       C  0.53141908  0.81974391  0.42138797     0.08000
C3222       C  0.54041619  0.83868913  0.44246421    -0.02100
Br3223     Br  0.02887105  0.86978104  0.44640122    -0.00700
Br3224     Br  0.56956814  0.86043332  0.48998102    -0.00700
Br3225     Br  0.53852217  0.78048474  0.38411095    -0.00700
Br3226     Br  0.59185558  0.78275494  0.41988877    -0.00700
C3227       C  0.74627214  0.92656540  0.43592419    -0.01800
C3228       C  0.75029535  0.92217406  0.46157705     0.07900
C3229       C  0.77510530  0.94123185  0.47413173    -0.01900
C3230       C  0.79679015  0.96351482  0.46055063    -0.01900
C3231       C  0.79328974  0.96727864  0.43448116     0.08000
C3232       C  0.76725409  0.94915503  0.42265576    -0.02100
Br3233     Br  0.76030617  0.95416399  0.38757323    -0.00700
Br3234     Br  0.71217572  0.90061639  0.41833923    -0.00700
Br3235     Br  0.83137612  0.48784108  0.47769675    -0.00700
Br3236     Br  0.77877829  0.93722601  0.51002263    -0.00700
C3237       C  0.53818870  0.74672712  0.91831701    -0.01800
C3238       C  0.52656376  0.71821485  0.92678097     0.07900
C3239       C  0.53752816  0.71221174  0.94937410    -0.01900
C3240       C  0.55855462  0.73433139  0.96360433    -0.01900
C3241       C  0.57224685  0.76188176  0.95352464     0.08000
C3242       C  0.56168721  0.76799533  0.93079342    -0.02100
Br3243     Br  0.58107664  0.80471318  0.91477612    -0.00700
Br3244     Br  0.52452025  0.75615447  0.88740953    -0.00700
Br3245     Br  0.56765106  0.72707358  0.99734649    -0.00700
Br3246     Br  0.52858811  0.67367677  0.95883282    -0.00700
C3247       C  0.69738220  0.96392525  0.91664889    -0.01800
C3248       C  0.68026159  0.97760072  0.92672092     0.07900
C3249       C  0.66595793  0.96875803  0.95023466    -0.01900
C3250       C  0.67041432  0.94823946  0.96430648    -0.01900
C3251       C  0.68445572  0.93229379  0.95299899     0.08000
C3252       C  0.69895144  0.94082798  0.92953546    -0.02100
Br3253     Br  0.71784908  0.91880761  0.91370728    -0.00700
Br3254     Br  0.71439194  0.97330200  0.88318486    -0.00700
Br3255     Br  0.65495369  0.94011356  0.99851367    -0.00700
Br3256     Br  0.63437659  0.97816824  0.96033194    -0.00700
C3257       C  0.77574683  0.81594469  0.58658359    -0.01800
C3258       C  0.80391864  0.83204263  0.57732379     0.07900
C3259       C  0.80754310  0.85049785  0.55670926    -0.01900
C3260       C  0.78358251  0.84951757  0.54319655    -0.01900
C3261       C  0.75550813  0.83275399  0.55197948     0.08000
C3262       C  0.75173894  0.81636748  0.57408632    -0.02100
Br3263     Br  0.71365821  0.79581627  0.58844623    -0.00700
Br3264     Br  0.77000077  0.79606979  0.61826781    -0.00700
Br3265     Br  0.78947723  0.87020977  0.51198233    -0.00700
Br3266     Br  0.84437846  0.88101931  0.54962343    -0.00700
C3267       C  0.80711875  0.85865455  0.95319185    -0.01800
C3268       C  0.79969383  0.84153417  0.93091086     0.07900
C3269       C  0.77013640  0.82622183  0.92545731    -0.01900
C3270       C  0.74860362  0.82757079  0.94224994    -0.01900
C3271       C  0.75623718  0.84391190  0.96499989     0.08000
C3272       C  0.78579180  0.85755435  0.97117735    -0.02100
Br3273     Br  0.79802527  0.87356217  0.00462202    -0.00700
Br3274     Br  0.84563040  0.88749690  0.95744695    -0.00700
Br3275     Br  0.70852773  0.80490868  0.93510025    -0.00700
Br3276     Br  0.75890171  0.80590586  0.89356375    -0.00700
C3277       C  0.68734986  0.94023823  0.58305125    -0.01800
C3278       C  0.67849777  0.96141977  0.57455627     0.07900
C3279       C  0.66886252  0.95954973  0.54946500    -0.01900
C3280       C  0.66997979  0.93828926  0.53264287    -0.01900
C3281       C  0.67676644  0.91595897  0.54157441     0.08000
C3282       C  0.68543086  0.91713423  0.56700379    -0.02100
Br3283     Br  0.69319517  0.88645839  0.58062777    -0.00700
Br3284     Br  0.70277740  0.94293214  0.61677435    -0.00700
Br3285     Br  0.66419841  0.94168537  0.49689432    -0.00700
Br3286     Br  0.65081923  0.98371002  0.53862404    -0.00700
C3287       C  0.54685864  0.70662632  0.55616030    -0.01800
C3288       C  0.53494706  0.71596629  0.57718102     0.07900
C3289       C  0.54536803  0.74559362  0.58263505    -0.01900
C3290       C  0.56803805  0.76521140  0.56794410    -0.01900
C3291       C  0.57997454  0.75538292  0.54757190     0.08000
C3292       C  0.56767818  0.72648830  0.54041200    -0.02100
Br3293     Br  0.58108240  0.71399571  0.50990631    -0.00700
Br3294     Br  0.54171115  0.66746915  0.55260571    -0.00700
Br3295     Br  0.58394215  0.80545270  0.57627512    -0.00700
Br3296     Br  0.53217156  0.75905551  0.61263193    -0.00700
C3297       C  0.92915983  0.85281745  0.83460370    -0.01800
C3298       C  0.92531925  0.86266168  0.81067588     0.07900
C3299       C  0.89863527  0.86376961  0.80600291    -0.01900
C3300       C  0.87594799  0.85309167  0.82370895    -0.01900
C3301       C  0.88170639  0.84928455  0.84898633     0.08000
C3302       C  0.90866496  0.84872265  0.85431808    -0.02100
Br3303     Br  0.91944623  0.84525281  0.88863161    -0.00700
Br3304     Br  0.96291073  0.84589113  0.84084964    -0.00700
Br3305     Br  0.83698648  0.84177086  0.81257737    -0.00700
Br3306     Br  0.89380078  0.88431402  0.77809691    -0.00700
C3307       C  0.56807819  0.93880779  0.84874139    -0.01800
C3308       C  0.57019638  0.95081844  0.82408398     0.07900
C3309       C  0.59166804  0.97811769  0.82150755    -0.01900
C3310       C  0.61676313  0.98420636  0.83479838    -0.01900
C3311       C  0.61304267  0.97981822  0.86073508     0.08000
C3312       C  0.58775464  0.95538101  0.86808085    -0.02100
Br3313     Br  0.57933287  0.94492118  0.90315709    -0.00700
Br3314     Br  0.54075170  0.90062066  0.85608606    -0.00700
Br3315     Br  0.63890588  0.46414265  0.82136240    -0.00700
Br3316     Br  0.58083191  0.50790849  0.81181547    -0.00700
C3317       C  0.61770185  0.94455827  0.69229442    -0.01800
C3318       C  0.58905410  0.94202721  0.68994252     0.07900
C3319       C  0.58221662  0.95359836  0.66824400    -0.01900
C3320       C  0.60252790  0.96435228  0.64863864    -0.01900
C3321       C  0.63183095  0.97260338  0.65369638     0.08000
C3322       C  0.63948456  0.96251468  0.67573054    -0.02100
Br3323     Br  0.67941662  0.97198365  0.68234082    -0.00700
Br3324     Br  0.62705879  0.92251329  0.71685607    -0.00700
Br3325     Br  0.58944905  0.96431073  0.61439527    -0.00700
Br3326     Br  0.54626631  0.95721121  0.66544825    -0.00700
C3327       C  0.92895220  0.83411789  0.66917356    -0.01800
C3328       C  0.94554848  0.86225632  0.67748537     0.07900
C3329       C  0.94489778  0.88513407  0.66345604    -0.01900
C3330       C  0.92582114  0.87975433  0.64307490    -0.01900
C3331       C  0.90470914  0.85191923  0.63858707     0.08000
C3332       C  0.90755734  0.82878888  0.65076219    -0.02100
Br3333     Br  0.88057274  0.78979238  0.64505507    -0.00700
Br3334     Br  0.93585827  0.80305408  0.68294454    -0.00700
Br3335     Br  0.92911563  0.91035960  0.62091607    -0.00700
Br3336     Br  0.96889140  0.92414573  0.67281697    -0.00700
C3337       C  0.53124559  0.67276220  0.82169621    -0.01800
C3338       C  0.53768528  0.67147631  0.84738767     0.07900
C3339       C  0.56440611  0.67083561  0.85323389    -0.01900
C3340       C  0.58308378  0.66984361  0.83355819    -0.01900
C3341       C  0.57370599  0.66485508  0.80818842     0.08000
C3342       C  0.54768315  0.66700901  0.80232251    -0.02100
Br3343     Br  0.53287828  0.66121566  0.76855730    -0.00700
Br3344     Br  0.00215267  0.68568390  0.81280625    -0.00700
Br3345     Br  0.62229005  0.67703963  0.84122690    -0.00700
Br3346     Br  0.57556968  0.66979674  0.88796583    -0.00700
C3347       C  0.66112845  0.54205842  0.83038961    -0.01800
C3348       C  0.65126204  0.54404765  0.85513660     0.07900
C3349       C  0.64329810  0.56667917  0.86102444    -0.01900
C3350       C  0.64460606  0.58582508  0.84185887    -0.01900
C3351       C  0.64646583  0.57831627  0.81595356     0.08000
C3352       C  0.65310559  0.55456286  0.81054321    -0.02100
Br3353     Br  0.64790602  0.53563500  0.77767346    -0.00700
Br3354     Br  0.69086011  0.02865406  0.82434231    -0.00700
Br3355     Br  0.64770052  0.62328620  0.85173843    -0.00700
Br3356     Br  0.63283239  0.57278590  0.89536475    -0.00700
C3357       C  0.69299847  0.58080326  0.68107136    -0.01800
C3358       C  0.66632266  0.57867443  0.69115087     0.07900
C3359       C  0.64114297  0.55512506  0.68376203    -0.01900
C3360       C  0.64209332  0.53863342  0.66255628    -0.01900
C3361       C  0.66832410  0.53773249  0.65471683     0.08000
C3362       C  0.69407276  0.55863181  0.66518310    -0.02100
Br3363     Br  0.73094714  0.55790888  0.65737799    -0.00700
Br3364     Br  0.72748051  0.61492645  0.68672329    -0.00700
Br3365     Br  0.61113835  0.02938644  0.63923456    -0.00700
Br3366     Br  0.60456139  0.54713859  0.70044651    -0.00700
C3367       C  0.54242025  0.66245265  0.67618082    -0.01800
C3368       C  0.54926602  0.66899218  0.65045450     0.07900
C3369       C  0.57795554  0.67541610  0.64181013    -0.01900
C3370       C  0.59911487  0.67724982  0.65926182    -0.01900
C3371       C  0.59057553  0.66607135  0.68364580     0.08000
C3372       C  0.56139733  0.65627191  0.69095802    -0.02100
Br3373     Br  0.54570955  0.62870055  0.71733644    -0.00700
Br3374     Br  0.51002441  0.66600527  0.69271783    -0.00700
Br3375     Br  0.63929977  0.69362453  0.64938964    -0.00700
Br3376     Br  0.58852172  0.67882063  0.60617766    -0.00700
C3377       C  0.94092902  0.60318387  0.81779806    -0.01800
C3378       C  0.95433734  0.58437247  0.81340104     0.07900
C3379       C  0.97747615  0.58637892  0.82859693    -0.01900
C3380       C  0.98706428  0.60696974  0.84822046    -0.01900
C3381       C  0.97554765  0.62755780  0.85122847     0.08000
C3382       C  0.95160103  0.62492083  0.83648617    -0.02100
Br3383     Br  0.93315915  0.65087996  0.84145409    -0.00700
Br3384     Br  0.90779383  0.59887894  0.79817712    -0.00700
Br3385     Br  0.01335304  0.60457249  0.87282463    -0.00700
Br3386     Br  0.99585630  0.56059375  0.82261250    -0.00700
C3387       C  0.89475347  0.93247644  0.83234676    -0.01800
C3388       C  0.87364115  0.93690539  0.81835881     0.07900
C3389       C  0.84443415  0.92199887  0.82536437    -0.01900
C3390       C  0.83620752  0.89960521  0.84302037    -0.01900
C3391       C  0.85745792  0.89433273  0.85629238     0.08000
C3392       C  0.88662405  0.91300295  0.85246331    -0.02100
Br3393     Br  0.91524360  0.91396167  0.87620234    -0.00700
Br3394     Br  0.93505593  0.95283964  0.82382733    -0.00700
Br3395     Br  0.79577577  0.87537157  0.84735078    -0.00700
Br3396     Br  0.81589054  0.93309135  0.81152078    -0.00700
C3397       C  0.94789981  0.59183860  0.67485285    -0.01800
C3398       C  0.96340588  0.57567673  0.68089579     0.07900
C3399       C  0.99001971  0.58143638  0.66852602    -0.01900
C3400       C  0.00049590  0.60262911  0.64972782    -0.01900
C3401       C  0.98667754  0.62111210  0.64583071     0.08000
C3402       C  0.96003954  0.61529795  0.65862469    -0.02100
Br3403     Br  0.94106032  0.64092148  0.65672351    -0.00700
Br3404     Br  0.91019820  0.58243240  0.68990729    -0.00700
Br3405     Br  0.03250458  0.60469089  0.62842351    -0.00700
Br3406     Br  0.01283535  0.56134039  0.67820746    -0.00700
C3407       C  0.87215262  0.87929981  0.67388699    -0.01800
C3408       C  0.86499134  0.88332086  0.64903754     0.07900
C3409       C  0.86320983  0.90961920  0.64377128    -0.01900
C3410       C  0.86753254  0.93014255  0.66329716    -0.01900
C3411       C  0.88043077  0.92804748  0.68608722     0.08000
C3412       C  0.88418993  0.90287051  0.69041259    -0.02100
Br3413     Br  0.90848340  0.90142178  0.71701737    -0.00700
Br3414     Br  0.86151015  0.84167549  0.68711263    -0.00700
Br3415     Br  0.85572066  0.96091782  0.65879619    -0.00700
Br3416     Br  0.85774913  0.91981393  0.60987190    -0.00700
C3417       C  0.96192509  0.66406869  0.55462608    -0.01800
C3418       C  0.96922357  0.67748208  0.57861072     0.07900
C3419       C  0.95280305  0.69178868  0.58905523    -0.01900
C3420       C  0.92901112  0.69170641  0.57573744    -0.01900
C3421       C  0.92343270  0.67979591  0.55102354     0.08000
C3422       C  0.94190434  0.66866019  0.53986376    -0.02100
Br3423     Br  0.94088004  0.66100736  0.50394815    -0.00700
Br3424     Br  0.97238512  0.63352332  0.54420996    -0.00700
Br3425     Br  0.90290149  0.70564697  0.59200064    -0.00700
Br3426     Br  0.96015448  0.70793289  0.62294784    -0.00700
C3427       C  0.80232804  0.56221707  0.45307133    -0.01800
C3428       C  0.82717273  0.58051417  0.46637203     0.07900
C3429       C  0.85258677  0.57597765  0.46344756    -0.01900
C3430       C  0.85304898  0.55321959  0.44836938    -0.01900
C3431       C  0.82834134  0.53503047  0.43491841     0.08000
C3432       C  0.80327459  0.54030485  0.43678423    -0.02100
Br3433     Br  0.77102137  0.51961063  0.41539150    -0.00700
Br3434     Br  0.76638867  0.56609029  0.45763825    -0.00700
Br3435     Br  0.88835189  0.54754611  0.44577046    -0.00700
Br3436     Br  0.88786161  0.60201059  0.47856397    -0.00700
C3437       C  0.75269478  0.54838052  0.54496377    -0.01800
C3438       C  0.75008512  0.57435799  0.54114327     0.07900
C3439       C  0.72458034  0.57660733  0.54906115    -0.01900
C3440       C  0.70240779  0.55328594  0.56085034    -0.01900
C3441       C  0.70776696  0.52994740  0.56966938     0.08000
C3442       C  0.73332731  0.52772792  0.56129518    -0.02100
Br3443     Br  0.74573188  0.50050711  0.57522360    -0.00700
Br3444     Br  0.78355293  0.54135309  0.52854851    -0.00700
Br3445     Br  0.66541022  0.05471232  0.56667612    -0.00700
Br3446     Br  0.72168091  0.61281496  0.54805518    -0.00700
C3447       C  0.93025908  0.73671055  0.43301881    -0.01800
C3448       C  0.91977233  0.74661711  0.45438083     0.07900
C3449       C  0.93322652  0.77566168  0.46122334    -0.01900
C3450       C  0.95300736  0.79536912  0.44439452    -0.01900
C3451       C  0.96415039  0.78584783  0.42298345     0.08000
C3452       C  0.95282595  0.75602888  0.41781778    -0.02100
Br3453     Br  0.96507390  0.74155363  0.38799044    -0.00700
Br3454     Br  0.91281944  0.69653335  0.42432955    -0.00700
Br3455     Br  0.95806803  0.83446297  0.44749256    -0.00700
Br3456     Br  0.92444449  0.78849848  0.49360773    -0.00700
C3457       C  0.71668899  0.63895652  0.45873713    -0.01800
C3458       C  0.74379438  0.66069287  0.45248627     0.07900
C3459       C  0.74529212  0.68134016  0.43456145    -0.01900
C3460       C  0.72005118  0.68151074  0.42444884    -0.01900
C3461       C  0.69269017  0.66098333  0.43185602     0.08000
C3462       C  0.69137149  0.63882246  0.44822534    -0.02100
Br3463     Br  0.65537033  0.60618975  0.45433300    -0.00700
Br3464     Br  0.71381902  0.60862255  0.48100470    -0.00700
Br3465     Br  0.72375244  0.70717407  0.39717699    -0.00700
Br3466     Br  0.78226689  0.70764254  0.42125215    -0.00700
C3467       C  0.82833567  0.76900463  0.57460883    -0.01800
C3468       C  0.84184111  0.79801078  0.56754380     0.07900
C3469       C  0.85397111  0.80447869  0.54295104    -0.01900
C3470       C  0.84977609  0.78259126  0.52486027    -0.01900
C3471       C  0.83864428  0.75375138  0.53247797     0.08000
C3472       C  0.82734226  0.74706492  0.55740711    -0.02100
Br3473     Br  0.80912352  0.70772924  0.56777267    -0.00700
Br3474     Br  0.81372182  0.75920809  0.60872895    -0.00700
Br3475     Br  0.85935699  0.79312531  0.48976019    -0.00700
Br3476     Br  0.88133070  0.84247969  0.53514694    -0.00700
C3477       C  0.73839385  0.55781120  0.91679595    -0.01800
C3478       C  0.71004143  0.54361008  0.92662454     0.07900
C3479       C  0.70344987  0.55216874  0.95070935    -0.01900
C3480       C  0.72548924  0.57054642  0.96634037    -0.01900
C3481       C  0.75273207  0.58674882  0.95576184     0.08000
C3482       C  0.75928618  0.58016286  0.93093401    -0.02100
Br3483     Br  0.79668386  0.60234365  0.91620083    -0.00700
Br3484     Br  0.74747855  0.54996262  0.88249881    -0.00700
Br3485     Br  0.71774322  0.57397117  0.00190279    -0.00700
Br3486     Br  0.66503133  0.54820628  0.95878764    -0.00700
C3487       C  0.73292175  0.67592808  0.08206811    -0.01800
C3488       C  0.70350206  0.66279757  0.07539671     0.07900
C3489       C  0.69612373  0.64622333  0.05294991    -0.01900
C3490       C  0.71724962  0.64776915  0.03479727    -0.01900
C3491       C  0.74677598  0.66090492  0.04095295     0.08000
C3492       C  0.75447781  0.67500944  0.06487561    -0.02100
Br3493     Br  0.79456953  0.69578096  0.07294910    -0.00700
Br3494     Br  0.74368483  0.69279977  0.11539969    -0.00700
Br3495     Br  0.70456828  0.63354565  0.00101596    -0.00700
Br3496     Br  0.65793035  0.61642412  0.04955950    -0.00700
C3497       C  0.93063333  0.65770295  0.96645578    -0.01800
C3498       C  0.91469279  0.67438305  0.96205243     0.07900
C3499       C  0.92165247  0.69146515  0.93999932    -0.01900
C3500       C  0.94456587  0.69268212  0.92368977    -0.01900
C3501       C  0.96032258  0.67632110  0.92851683     0.08000
C3502       C  0.95101993  0.65671145  0.94846758    -0.02100
Br3503     Br  0.96198564  0.62488325  0.94886289    -0.00700
Br3504     Br  0.92757326  0.63736937  0.99768785    -0.00700
Br3505     Br  0.95135191  0.71334194  0.89239163    -0.00700
Br3506     Br  0.89933182  0.71230537  0.93063498    -0.00700
C3507       C  0.80463991  0.56419192  0.06874041    -0.01800
C3508       C  0.82230194  0.57492978  0.04715508     0.07900
C3509       C  0.83876149  0.56054798  0.03735702    -0.01900
C3510       C  0.84132006  0.53879174  0.05125490    -0.01900
C3511       C  0.82359301  0.52763452  0.07281583     0.08000
C3512       C  0.80493587  0.54032499  0.08126855    -0.02100
Br3513     Br  0.78390133  0.52884442  0.11280822    -0.00700
Br3514     Br  0.78285132  0.58420781  0.08306080    -0.00700
Br3515     Br  0.87407125  0.53001906  0.04402657    -0.00700
Br3516     Br  0.85909815  0.57154969  0.00523529    -0.00700
C3517       C  0.94064678  0.74260857  0.06595752    -0.01800
C3518       C  0.92919463  0.74752040  0.04320474     0.07900
C3519       C  0.94149200  0.77490629  0.03268503    -0.01900
C3520       C  0.96189992  0.79795985  0.04649991    -0.01900
C3521       C  0.97363909  0.79331727  0.06926277     0.08000
C3522       C  0.96319625  0.76509680  0.07838699    -0.02100
Br3523     Br  0.97681230  0.75759295  0.11011931    -0.00700
Br3524     Br  0.92388053  0.70560993  0.08188100    -0.00700
Br3525     Br  0.46839603  0.83579590  0.03651841    -0.00700
Br3526     Br  0.93138378  0.78066441  0.99883673    -0.00700
C3527       C  0.84881677  0.78468063  0.96379677    -0.01800
C3528       C  0.83334623  0.75589877  0.95679364     0.07900
C3529       C  0.81685382  0.74922592  0.93442717    -0.01900
C3530       C  0.81557957  0.77113627  0.91950151    -0.01900
C3531       C  0.83118601  0.80016292  0.92644454     0.08000
C3532       C  0.84934727  0.80654593  0.94780930    -0.02100
Br3533     Br  0.87939622  0.84405976  0.95261135    -0.00700
Br3534     Br  0.86806206  0.79426425  0.99596279    -0.00700
Br3535     Br  0.79505263  0.76112915  0.88789235    -0.00700
Br3536     Br  0.79717100  0.70988325  0.92329918    -0.00700
loop_ 
_geom_bond_atom_site_label_1 
_geom_bond_atom_site_label_2 
_geom_bond_distance 
_geom_bond_site_symmetry_2 
_ccdc_geom_bond_type 
O1           Ni7   1.917       .  S
O1           C22   1.270       .  A
O2          Ni25   1.945   1_556  S
O2           C11   1.280       .  A
O3           Ni7   1.903       .  S
O3          Ni25   1.924       .  S
O3          Ni19   1.926       .  S
O3           H26   0.974       .  S
C4           O21   1.276       .  A
C4           O13   1.277       .  A
C4          C829   1.479       .  S
O5          Ni24   1.908       .  S
O5           C11   1.264       .  A
O6          Ni24   1.908       .  S
O6            C8   1.267   1_556  A
Ni7          O10   1.932       .  S
Ni7          O12   1.897   1_554  S
C8           O18   1.279       .  A
C8          C839   1.501       .  S
O9          Ni25   1.930       .  S
O9           C15   1.281       .  A
O10          C15   1.272       .  A
C11         C876   1.487       .  S
O12          C14   1.261       .  A
O13         Ni24   1.923       .  S
C14          O20   1.280       .  A
C14         C846   1.508       .  S
C15         C866   1.491       .  S
H16          O17   0.968       .  S
O17         Ni25   1.920   1_556  S
O17         Ni19   1.900   1_556  S
O17         Ni24   1.899       .  S
O18         Ni19   1.957       .  S
Ni19         O23   1.909       .  S
Ni19         O21   1.930   1_554  S
O20         Ni25   1.971   1_556  S
C22          O23   1.269       .  A
C22         C856   1.482       .  S
O27         Ni33   1.923       .  S
O27          C48   1.269       .  A
O28         Ni51   1.907       .  S
O28          C37   1.266       .  A
O29         Ni33   1.888       .  S
O29         Ni51   1.895       .  S
O29         Ni45   1.922       .  S
O29          H52   0.966       .  S
C30          O47   1.283       .  A
C30          O39   1.276       .  A
C30         C786   1.488       .  S
O31         Ni50   1.930       .  S
O31          C37   1.274       .  A
O32         Ni50   1.908       .  S
O32          C34   1.270       .  A
Ni33         O36   1.935       .  S
Ni33         O38   1.903       .  S
C34          O44   1.276       .  A
C34         C776   1.497       .  S
O35         Ni51   1.940       .  S
O35          C41   1.280       .  A
O36          C41   1.281       .  A
C37         C769   1.475       .  S
O38          C40   1.265       .  A
O39         Ni50   1.913       .  S
C40          O46   1.275       .  A
C40         C819   1.495       .  S
C41         C796   1.490       .  S
H42          O43   0.964       .  S
O43         Ni51   1.918       .  S
O43         Ni45   1.907       .  S
O43         Ni50   1.894       .  S
O44         Ni45   1.942       .  S
Ni45         O49   1.929       .  S
Ni45         O47   1.940       .  S
O46         Ni51   1.941       .  S
C48          O49   1.276       .  A
C48         C806   1.491       .  S
N53          C58   1.358       .  A
N53         C941   1.356   1_545  A
N53          H85   1.038       .  S
N54          C61   1.351       .  A
N54          C62   1.354       .  A
N55          C60   1.352       .  A
N55         C943   1.355   1_545  A
N55          H86   1.030       .  S
N56          C63   1.352       .  A
N56          C64   1.353       .  A
C57         N937   1.356       .  A
C57          C65   1.389       .  A
C57          C73   1.425       .  A
C58          C74   1.420       .  A
C58          C66   1.385       .  A
C59         N939   1.355       .  A
C59          C67   1.387       .  A
C59          C76   1.421       .  A
C60          C75   1.421       .  A
C60          C68   1.389       .  A
C61          C73   1.422       .  A
C61          C69   1.387       .  A
C62          C76   1.423       .  A
C62          C70   1.386       .  A
C63          C71   1.386       .  A
C63          C74   1.419       .  A
C64          C72   1.385       .  A
C64          C75   1.419       .  A
C65         C950   1.374       .  A
C65          H77   1.082       .  S
C66         C949   1.374   1_545  A
C66          H78   1.081       .  S
C67         C952   1.373       .  A
C67          H79   1.082       .  S
C68         C951   1.373   1_545  A
C68          H80   1.082       .  S
C69          C70   1.373       .  A
C69          H81   1.082       .  S
C70          H82   1.081       .  S
C71          C72   1.370       .  A
C71          H83   1.080       .  S
C72          H84   1.081       .  S
C73         C759   1.502       .  S
C74         C746   1.500       .  S
C75         C726   1.490       .  S
C76         C736   1.506       .  S
N87          C92   1.352       .  A
N87          C91   1.355       .  A
N87         H119   1.043       .  S
N88          C95   1.348       .  A
N88          C96   1.348       .  A
N89          C94   1.352       .  A
N89          C93   1.348       .  A
N89         H120   1.044       .  S
N90          C97   1.342       .  A
N90          C98   1.350       .  A
C91          C99   1.388       .  A
C91         C107   1.421       .  A
C92         C108   1.416       .  A
C92         C100   1.388       .  A
C93         C101   1.389       .  A
C93         C110   1.416       .  A
C94         C109   1.416       .  A
C94         C102   1.386       .  A
C95         C107   1.407       .  A
C95         C103   1.384       .  A
C96         C110   1.416       .  A
C96         C104   1.388       .  A
C97         C105   1.388       .  A
C97         C108   1.408       .  A
C98         C106   1.384       .  A
C98         C109   1.411       .  A
C99         C100   1.373       .  A
C99         H111   1.081       .  S
C100        H112   1.082       .  S
C101        C102   1.383       .  A
C101        H113   1.082       .  S
C102        H114   1.082       .  S
C103        C104   1.378       .  A
C103        H115   1.079       .  S
C104        H116   1.082       .  S
C105        C106   1.382       .  A
C105        H117   1.082       .  S
C106        H118   1.082       .  S
C107        C706   1.498       .  S
C108        C719   1.485       .  S
C109        C689   1.505       .  S
C110        C699   1.500       .  S
N121        C126   1.358       .  A
N121       C1893   1.357   1_455  A
N121        H153   1.041       .  S
N122        C129   1.353       .  A
N122        C130   1.354       .  A
N123        C128   1.352       .  A
N123       C1895   1.351   1_455  A
N123        H154   1.039       .  S
N124        C131   1.357       .  A
N124        C132   1.359       .  A
C125       N1889   1.357       .  A
C125        C133   1.387       .  A
C125        C141   1.422       .  A
C126        C142   1.418       .  A
C126        C134   1.386       .  A
C127       N1891   1.351       .  A
C127        C135   1.384       .  A
C127        C144   1.409       .  A
C128        C143   1.415       .  A
C128        C136   1.389       .  A
C129        C141   1.423       .  A
C129        C137   1.387       .  A
C130        C144   1.420       .  A
C130        C138   1.385       .  A
C131        C139   1.394       .  A
C131        C142   1.440       .  A
C132        C140   1.375       .  A
C132        C143   1.418       .  A
C133       C1902   1.371       .  A
C133        H145   1.081       .  S
C134       C1901   1.371   1_455  A
C134        H146   1.082       .  S
C135       C1904   1.374       .  A
C135        H147   1.082       .  S
C136       C1903   1.374       .  A
C136        H148   1.082       .  S
C137        C138   1.375       .  A
C137        H149   1.082       .  S
C138        H150   1.080       .  S
C139        C140   1.357       .  A
C139        H151   1.067       .  S
C140        H152   1.081       .  S
C141        C646   1.511       .  S
C142        C656   1.519       .  S
C143        C666   1.508       .  S
C144        C676   1.501       .  S
C155        C766   1.484       .  S
C155        C160   1.403       .  A
C155       C1924   1.412       .  A
C156        C636   1.487       .  S
C156        C157   1.392       .  A
C156       C1923   1.412   1_455  A
C157        C158   1.399       .  A
C157        H162   1.085       .  S
C158        C716   1.491       .  S
C158       C1927   1.432   1_455  A
C159        C749   1.507       .  S
C159        C160   1.410       .  A
C159       C1926   1.432       .  A
C160        H161   1.084       .  S
C163        C789   1.507       .  S
C163        C168   1.413       .  A
C163       C1048   1.433   1_545  A
C164        C626   1.500       .  S
C164        C165   1.404       .  A
C164       C1047   1.433       .  A
C165        C166   1.399       .  A
C165        H170   1.086       .  S
C166        C669   1.480       .  S
C166       C1051   1.418       .  A
C167        C709   1.506       .  S
C167        C168   1.402       .  A
C167       C1050   1.418   1_545  A
C168        H169   1.084       .  S
C171        C879   1.500       .  S
C171        C172   1.428       .  A
C171        C176   1.403       .  A
C172        C616   1.502       .  S
C172        C173   1.410       .  A
C173        C174   1.410       .  A
C173        H178   1.084       .  S
C174        C739   1.509       .  S
C174        C175   1.430       .  A
C175        C649   1.502       .  S
C175        C176   1.403       .  A
C176        H177   1.084       .  S
C179        C816   1.496       .  S
C179        C180   1.423       .  A
C179        C184   1.408       .  A
C180        C606   1.495       .  S
C180        C181   1.400       .  A
C181        C182   1.404       .  A
C181        H186   1.084       .  S
C182        C756   1.506       .  S
C182        C183   1.433       .  A
C183        C679   1.506       .  S
C183        C184   1.409       .  A
C184        H185   1.084       .  S
C187        C826   1.489       .  S
C187        C192   1.392       .  A
C187       C1072   1.418   1_545  A
C188        C596   1.482       .  S
C188        C189   1.408       .  A
C188       C1071   1.418       .  A
C189        C190   1.405       .  A
C189        H194   1.083       .  S
C190        C659   1.509       .  S
C190       C1075   1.430       .  A
C191        C696   1.480       .  S
C191        C192   1.397       .  A
C191       C1074   1.430   1_545  A
C192        H193   1.086       .  S
C195        C849   1.492       .  S
C195        C200   1.406       .  A
C195       C1964   1.427       .  A
C196        C586   1.499       .  S
C196        C197   1.403       .  A
C196       C1963   1.427   1_455  A
C197        C198   1.398       .  A
C197        H202   1.085       .  S
C198        C686   1.497       .  S
C198       C1967   1.422   1_455  A
C199        C729   1.493       .  S
C199        C200   1.404       .  A
C199       C1966   1.422       .  A
C200        H201   1.085       .  S
O203       Ni209   1.927       .  S
O203        C224   1.272       .  A
O204       Ni227   1.936       .  S
O204        C213   1.277       .  A
O205       Ni209   1.903       .  S
O205       Ni227   1.920       .  S
O205       Ni221   1.911       .  S
O205        H228   0.968       .  S
C206        O223   1.270       .  A
C206        O215   1.276       .  A
C206        C639   1.470       .  S
O207       Ni226   1.915       .  S
O207        C213   1.266       .  A
O208       Ni226   1.908       .  S
O208        C210   1.266       .  A
Ni209       O212   1.927       .  S
Ni209       O214   1.901       .  S
C210        O220   1.278       .  A
C210        C556   1.512       .  S
O211       Ni227   1.925       .  S
O211        C217   1.280       .  A
O212        C217   1.273       .  A
C213        C609   1.488       .  S
O214        C216   1.265       .  A
O215       Ni226   1.924       .  S
C216        O222   1.278       .  A
C216        C629   1.495       .  S
C217        C576   1.476       .  S
H218        O219   0.965       .  S
O219       Ni227   1.917       .  S
O219       Ni221   1.908       .  S
O219       Ni226   1.903       .  S
O220       Ni221   1.950       .  S
Ni221       O225   1.904       .  S
Ni221       O223   1.913       .  S
O222       Ni227   1.961       .  S
C224        O225   1.266       .  A
C224        C566   1.485       .  S
O229       Ni235   1.911       .  S
O229        C250   1.265       .  A
O230       Ni253   1.905       .  S
O230        C239   1.268       .  A
O231       Ni235   1.887       .  S
O231       Ni253   1.889   1_554  S
O231       Ni247   1.922   1_554  S
O231        H254   0.966       .  S
C232        O249   1.283       .  A
C232        O241   1.275       .  A
C232        C589   1.491       .  S
O233       Ni252   1.920       .  S
O233        C239   1.272       .  A
O234       Ni252   1.899   1_554  S
O234        C236   1.261       .  A
Ni235       O238   1.925       .  S
Ni235       O240   1.908       .  S
C236        O246   1.284       .  A
C236        C536   1.512       .  S
O237       Ni253   1.931   1_554  S
O237        C243   1.278       .  A
O238        C243   1.280       .  A
C239        C599   1.475       .  S
O240        C242   1.265   1_554  A
O241       Ni252   1.934       .  S
C242        O248   1.280       .  A
C242        C619   1.501       .  S
C243        C546   1.483       .  S
H244        O245   0.965       .  S
O245       Ni253   1.921       .  S
O245       Ni247   1.919       .  S
O245       Ni252   1.892       .  S
O246       Ni247   1.987   1_554  S
Ni247       O251   1.948   1_556  S
Ni247       O249   1.932       .  S
O248       Ni253   1.956       .  S
C250        O251   1.283       .  A
C250        C529   1.488       .  S
N255        C259   1.353       .  A
N255       C2028   1.353       .  A
N255        H287   1.043       .  S
N256        C263   1.346       .  A
N256        C264   1.345       .  A
N257        C261   1.356       .  A
N257       C2030   1.355       .  A
N257        H288   1.038       .  S
N258        C265   1.360       .  A
N258        C266   1.356       .  A
C259        C267   1.380       .  A
C259        C275   1.409       .  A
C260       N2023   1.353   1_455  A
C260        C276   1.419       .  A
C260        C268   1.389       .  A
C261        C269   1.383       .  A
C261        C278   1.419       .  A
C262       N2025   1.355   1_455  A
C262        C277   1.424       .  A
C262        C270   1.391       .  A
C263        C275   1.402       .  A
C263        C271   1.383       .  A
C264        C278   1.408       .  A
C264        C272   1.388       .  A
C265        C273   1.379       .  A
C265        C276   1.422       .  A
C266        C274   1.390       .  A
C266        C277   1.434       .  A
C267       C2036   1.376       .  A
C267        H279   1.082       .  S
C268       C2035   1.376   1_455  A
C268        H280   1.071       .  S
C269       C2038   1.369       .  A
C269        H281   1.082       .  S
C270       C2037   1.369   1_455  A
C270        H282   1.077       .  S
C271        C272   1.374       .  A
C271        H283   1.081       .  S
C272        H284   1.081       .  S
C273        C274   1.366       .  A
C273        H285   1.080       .  S
C274        H286   1.078       .  S
C275        C496   1.487       .  S
C276        C516   1.532       .  S
C277        C509   1.505       .  S
C278        C489   1.491       .  S
N289        C294   1.347       .  A
N289        C293   1.355       .  A
N289        H321   1.040       .  S
N290        C297   1.347       .  A
N290        C298   1.347       .  A
N291        C296   1.350       .  A
N291        C295   1.353       .  A
N291        H322   1.040       .  S
N292        C299   1.354       .  A
N292        C300   1.353       .  A
C293        C301   1.388       .  A
C293        C309   1.420       .  A
C294        C310   1.411       .  A
C294        C302   1.386       .  A
C295        C303   1.385       .  A
C295        C312   1.416       .  A
C296        C311   1.411       .  A
C296        C304   1.387       .  A
C297        C309   1.412       .  A
C297        C305   1.387       .  A
C298        C312   1.408       .  A
C298        C306   1.384       .  A
C299        C307   1.385       .  A
C299        C310   1.413       .  A
C300        C308   1.388       .  A
C300        C311   1.420       .  A
C301        C302   1.383       .  A
C301        H313   1.082       .  S
C302        H314   1.082       .  S
C303        C304   1.372       .  A
C303        H315   1.082       .  S
C304        H316   1.074       .  S
C305        C306   1.378       .  A
C305        H317   1.082       .  S
C306        H318   1.079       .  S
C307        C308   1.369       .  A
C307        H319   1.081       .  S
C308        H320   1.082       .  S
C309        C469   1.502       .  S
C310        C446   1.494       .  S
C311        C456   1.498       .  S
C312        C476   1.496       .  S
C323        C779   1.497       .  S
C323        C328   1.409       .  A
C323       C1208   1.428   1_545  A
C324        C579   1.496       .  S
C324        C325   1.409       .  A
C324       C1207   1.428       .  A
C325        C326   1.398       .  A
C325        H330   1.085       .  S
C326        C466   1.489       .  S
C326       C1211   1.414       .  A
C327        C486   1.488       .  S
C327        C328   1.401       .  A
C327       C1210   1.414   1_545  A
C328        H329   1.085       .  S
N331        C335   1.361       .  A
N331       C1220   1.354       .  A
N331        H363   1.039       .  S
N332        C339   1.360       .  A
N332        C340   1.353       .  A
N333        C337   1.356       .  A
N333       C1222   1.359       .  A
N333        H364   1.037       .  S
N334        C341   1.356       .  A
N334        C342   1.361       .  A
C335        C343   1.387       .  A
C335        C351   1.428       .  A
C336       N1215   1.354   1_545  A
C336        C352   1.421       .  A
C336        C344   1.387       .  A
C337        C345   1.387       .  A
C337        C354   1.422       .  A
C338       N1217   1.359       .  A
C338        C353   1.428       .  A
C338        C346   1.388       .  A
C339        C351   1.425       .  A
C339        C347   1.385       .  A
C340        C354   1.423       .  A
C340        C348   1.382       .  A
C341        C349   1.388       .  A
C341        C352   1.432       .  A
C342        C350   1.380       .  A
C342        C353   1.422       .  A
C343       C1228   1.380       .  A
C343        H355   1.082       .  S
C344       C1227   1.380   1_545  A
C344        H356   1.082       .  S
C345       C1230   1.375       .  A
C345        H357   1.082       .  S
C346       C1229   1.375   1_545  A
C346        H358   1.081       .  S
C347        C348   1.374       .  A
C347        H359   1.082       .  S
C348        H360   1.075       .  S
C349        C350   1.373       .  A
C349        H361   1.076       .  S
C350        H362   1.081       .  S
C351        C406   1.529       .  S
C352        C426   1.509       .  S
C353        C436   1.527       .  S
C354        C419   1.504       .  S
C365        C859   1.487       .  S
C365        C370   1.407       .  A
C365       C1250   1.426   1_545  A
C366        C549   1.497       .  S
C366        C367   1.406       .  A
C366       C1249   1.426       .  A
C367        C368   1.402       .  A
C367        H372   1.085       .  S
C368        C479   1.481       .  S
C368       C1253   1.414       .  A
C369        C499   1.491       .  S
C369        C370   1.398       .  A
C369       C1252   1.414   1_545  A
C370        H371   1.085       .  S
C373        C559   1.517       .  S
C373        C374   1.431       .  A
C373        C378   1.412       .  A
C374        C809   1.497       .  S
C374        C375   1.400       .  A
C375        C376   1.396       .  A
C375        H380   1.086       .  S
C376        C429   1.502       .  S
C376        C377   1.436       .  A
C377        C506   1.521       .  S
C377        C378   1.414       .  A
C378        H379   1.076       .  S
C381        C526   1.499       .  S
C381        C382   1.436       .  A
C381        C386   1.392       .  A
C382        C836   1.502       .  S
C382        C383   1.428       .  A
C383        C384   1.429       .  A
C383        H388   1.079       .  S
C384        C439   1.558       .  S
C384        C385   1.370       .  A
C385        C519   1.387       .  S
C385        C386   1.380       .  A
C386        H387   1.086       .  S
C389        C799   1.506       .  S
C389        C394   1.403       .  A
C389       C2158   1.427       .  A
C390        C569   1.493       .  S
C390        C391   1.414       .  A
C390       C2157   1.427   1_455  A
C391        C392   1.408       .  A
C391        H396   1.085       .  S
C392        C409   1.510       .  S
C392       C2161   1.427   1_455  A
C393        C449   1.494       .  S
C393        C394   1.408       .  A
C393       C2160   1.427       .  A
C394        H395   1.085       .  S
C397        C869   1.502       .  S
C397        C402   1.400       .  A
C397       C2166   1.423       .  A
C398        C539   1.507       .  S
C398        C399   1.414       .  A
C398       C2165   1.423   1_455  A
C399        C400   1.419       .  A
C399        H404   1.084       .  S
C400        C416   1.512       .  S
C400       C2169   1.434   1_455  A
C401        C459   1.513       .  S
C401        C402   1.404       .  A
C401       C2168   1.434       .  A
C402        H403   1.084       .  S
C405        C406   1.417       .  A
C405        C410   1.410       .  A
C405       Br412   1.923       .  S
C406        C407   1.424       .  A
C407        C408   1.424       .  A
C407       Br414   1.929       .  S
C408        C409   1.412       .  A
C408       Br413   1.926       .  S
C409        C410   1.409       .  A
C410      Br2179   1.932       .  S
Br411      C2178   1.932       .  S
C415        C416   1.424       .  A
C415        C420   1.411       .  A
C415       Br422   1.934       .  S
C416        C417   1.418       .  A
C417        C418   1.417       .  A
C417      Br2192   1.929   1_455  S
C418        C419   1.412       .  A
C418      Br2191   1.929   1_455  S
C419        C420   1.407       .  A
C420       Br421   1.934       .  S
Br423      C2186   1.929       .  S
Br424      C2185   1.929       .  S
C425        C426   1.411       .  A
C425        C430   1.412       .  A
C425       Br432   1.930       .  S
C426        C427   1.419       .  A
C427        C428   1.412       .  A
C427       Br434   1.928       .  S
C428        C429   1.408       .  A
C428       Br433   1.930       .  S
C429        C430   1.420       .  A
C430       Br431   1.935       .  S
C435        C436   1.388       .  A
C435        C440   1.380       .  A
C435       Br442   1.934       .  S
C436        C437   1.438       .  A
C437        C438   1.511       .  A
C437       Br444   1.960       .  S
C438        C439   1.536       .  A
C438       Br443   3.719       .  S
C439        C440   1.411       .  A
C440       Br441   1.940       .  S
C445        C446   1.409       .  A
C445        C450   1.394       .  A
C445       Br452   1.927       .  S
C446        C447   1.410       .  A
C447        C448   1.413       .  A
C447       Br454   1.929       .  S
C448        C449   1.421       .  A
C448       Br453   1.927       .  S
C449        C450   1.405       .  A
C450       Br451   1.915       .  S
C455        C456   1.411       .  A
C455        C460   1.402       .  A
C455       Br462   1.928       .  S
C456        C457   1.405       .  A
C457        C458   1.408       .  A
C457       Br464   1.927       .  S
C458        C459   1.429       .  A
C458       Br463   1.933       .  S
C459        C460   1.412       .  A
C460      Br2229   1.920       .  S
Br461      C2228   1.920       .  S
C465        C466   1.409       .  A
C465        C470   1.406       .  A
C465       Br472   1.924       .  S
C466        C467   1.409       .  A
C467        C468   1.408       .  A
C467       Br474   1.929       .  S
C468        C469   1.417       .  A
C468       Br473   1.925       .  S
C469        C470   1.415       .  A
C470       Br471   1.935       .  S
C475        C476   1.415       .  A
C475        C480   1.409       .  A
C475       Br482   1.930       .  S
C476        C477   1.415       .  A
C477        C478   1.400       .  A
C477       Br484   1.933       .  S
C478        C479   1.404       .  A
C478       Br483   1.928       .  S
C479        C480   1.410       .  A
C480       Br481   1.927       .  S
C485        C486   1.413       .  A
C485        C490   1.408       .  A
C485       Br492   1.930       .  S
C486        C487   1.409       .  A
C487        C488   1.402       .  A
C487      Br1378   1.922       .  S
C488        C489   1.409       .  A
C488       Br493   1.932       .  S
C489        C490   1.412       .  A
C490       Br491   1.931       .  S
Br494      C1371   1.922       .  S
C495        C496   1.409       .  A
C495        C500   1.410       .  A
C495       Br502   1.929       .  S
C496        C497   1.406       .  A
C497        C498   1.401       .  A
C497       Br504   1.927       .  S
C498        C499   1.408       .  A
C498       Br503   1.921       .  S
C499        C500   1.414       .  A
C500       Br501   1.927       .  S
C505        C506   1.433       .  A
C505        C510   1.421       .  A
C505       Br512   1.930       .  S
C506        C507   1.402       .  A
C507        C508   1.391       .  A
C507       Br514   1.916       .  S
C508        C509   1.397       .  A
C508       Br513   1.917       .  S
C509        C510   1.416       .  A
C510       Br511   1.928       .  S
C515        C516   1.652       .  A
C515        C520   1.606       .  A
C515       Br522   1.925       .  S
C516        C517   1.629       .  A
C517        C518   1.598       .  A
C517       Br524   1.931       .  S
C518        C519   1.617       .  A
C518       Br523   1.924       .  S
C519        C520   1.606       .  A
C520       Br521   1.919       .  S
C525        C526   1.413       .  A
C525        C530   1.410       .  A
C525       Br532   1.926       .  S
C526        C527   1.422       .  A
C527        C528   1.414       .  A
C527       Br534   1.924       .  S
C528        C529   1.406       .  A
C528       Br533   1.928   1_554  S
C529        C530   1.414       .  A
C530       Br531   1.936       .  S
C535        C536   1.417       .  A
C535        C540   1.422       .  A
C535       Br542   1.932       .  S
C536        C537   1.427       .  A
C537        C538   1.410       .  A
C537       Br544   1.939   1_554  S
C538        C539   1.408       .  A
C538       Br543   1.931       .  S
C539        C540   1.418       .  A
C540       Br541   1.925       .  S
C545        C546   1.406       .  A
C545        C550   1.405       .  A
C545       Br552   1.929   1_554  S
C546        C547   1.408       .  A
C547        C548   1.412       .  A
C547       Br554   1.930       .  S
C548        C549   1.418       .  A
C548       Br553   1.926       .  S
C549        C550   1.413       .  A
C550       Br551   1.919       .  S
C555        C556   1.418       .  A
C555        C560   1.420       .  A
C555       Br562   1.934       .  S
C556        C557   1.423       .  A
C557        C558   1.413       .  A
C557       Br564   1.939       .  S
C558        C559   1.413       .  A
C558       Br563   1.924       .  S
C559        C560   1.423       .  A
C560       Br561   1.935       .  S
C565        C566   1.411       .  A
C565        C570   1.404       .  A
C565       Br572   1.936       .  S
C566        C567   1.411       .  A
C567        C568   1.414       .  A
C567       Br574   1.933       .  S
C568        C569   1.416       .  A
C568       Br573   1.927       .  S
C569        C570   1.412       .  A
C570      Br2339   1.923       .  S
Br571      C2338   1.923       .  S
C575        C576   1.408       .  A
C575        C580   1.401       .  A
C575       Br582   1.940       .  S
C576        C577   1.408       .  A
C577        C578   1.416       .  A
C577       Br584   1.927       .  S
C578        C579   1.416       .  A
C578      Br1467   1.921       .  S
C579        C580   1.417       .  A
C580       Br581   1.932       .  S
Br583      C1462   1.921       .  S
C585        C586   1.415       .  A
C585        C590   1.409       .  A
C585       Br592   1.933       .  S
C586        C587   1.419       .  A
C587        C588   1.413       .  A
C587       Br594   1.916       .  S
C588        C589   1.407       .  A
C588       Br593   1.929       .  S
C589        C590   1.417       .  A
C590       Br591   1.937       .  S
C595        C596   1.416       .  A
C595        C600   1.413       .  A
C595       Br602   1.928       .  S
C596        C597   1.409       .  A
C597        C598   1.398       .  A
C597       Br604   1.924       .  S
C598        C599   1.407       .  A
C598       Br603   1.934       .  S
C599        C600   1.408       .  A
C600       Br601   1.929       .  S
C605        C606   1.412       .  A
C605        C610   1.411       .  A
C605       Br612   1.930       .  S
C606        C607   1.417       .  A
C607        C608   1.410       .  A
C607       Br614   1.923       .  S
C608        C609   1.407       .  A
C608       Br613   1.929       .  S
C609        C610   1.416       .  A
C610       Br611   1.934       .  S
C615        C616   1.411       .  A
C615        C620   1.410       .  A
C615       Br622   1.926       .  S
C616        C617   1.416       .  A
C617        C618   1.417       .  A
C617       Br624   1.925       .  S
C618        C619   1.413       .  A
C618       Br623   1.931       .  S
C619        C620   1.418       .  A
C620       Br621   1.930   1_556  S
C625        C626   1.424       .  A
C625        C630   1.412       .  A
C625       Br632   1.937       .  S
C626        C627   1.407       .  A
C627        C628   1.409       .  A
C627       Br634   1.927       .  S
C628        C629   1.421       .  A
C628       Br633   1.935       .  S
C629        C630   1.411       .  A
C630       Br631   1.934       .  S
C635        C636   1.418       .  A
C635        C640   1.402       .  A
C635       Br642   1.925       .  S
C636        C637   1.416       .  A
C637        C638   1.410       .  A
C637       Br644   1.926       .  S
C638        C639   1.405       .  A
C638       Br643   1.929       .  S
C639        C640   1.399       .  A
C640       Br641   1.930       .  S
C645        C646   1.416       .  A
C645        C650   1.412       .  A
C645       Br652   1.932       .  S
C646        C647   1.413       .  A
C647        C648   1.401       .  A
C647       Br654   1.908       .  S
C648        C649   1.405       .  A
C648       Br653   1.927       .  S
C649        C650   1.421       .  A
C650       Br651   1.934       .  S
C655        C656   1.434       .  A
C655        C660   1.439       .  A
C655       Br662   1.924       .  S
C656        C657   1.387       .  A
C657        C658   1.388       .  A
C657      Br1548   1.913       .  S
C658        C659   1.385       .  A
C658      Br1547   1.931       .  S
C659        C660   1.434       .  A
C660       Br661   1.925       .  S
Br663      C1542   1.931       .  S
Br664      C1541   1.913   1_545  S
C665        C666   1.420       .  A
C665        C670   1.413       .  A
C665       Br672   1.931       .  S
C666        C667   1.415       .  A
C667        C668   1.397       .  A
C667       Br674   1.927       .  S
C668        C669   1.405       .  A
C668       Br673   1.936       .  S
C669        C670   1.408       .  A
C670       Br671   1.927       .  S
C675        C676   1.406       .  A
C675        C680   1.412       .  A
C675       Br682   1.931       .  S
C676        C677   1.416       .  A
C677        C678   1.409       .  A
C677       Br684   1.929       .  S
C678        C679   1.410       .  A
C678       Br683   1.930       .  S
C679        C680   1.424       .  A
C680       Br681   1.929       .  S
C685        C686   1.409       .  A
C685        C690   1.408       .  A
C685      Br2460   1.929       .  S
C686        C687   1.417       .  A
C687        C688   1.406       .  A
C687       Br694   1.936       .  S
C688        C689   1.411       .  A
C688       Br693   1.928       .  S
C689        C690   1.418       .  A
C690       Br691   1.916       .  S
Br692      C2453   1.929       .  S
C695        C696   1.403       .  A
C695        C700   1.393       .  A
C695      Br1586   1.925       .  S
C696        C697   1.408       .  A
C697        C698   1.408       .  A
C697       Br704   1.929       .  S
C698        C699   1.421       .  A
C698       Br703   1.926       .  S
C699        C700   1.417       .  A
C700       Br701   1.934       .  S
Br702      C1579   1.925       .  S
C705        C706   1.411       .  A
C705        C710   1.416       .  A
C705       Br712   1.927       .  S
C706        C707   1.409       .  A
C707        C708   1.398       .  A
C707       Br714   1.932       .  S
C708        C709   1.410       .  A
C708      Br1597   1.915       .  S
C709        C710   1.423       .  A
C710       Br711   1.931       .  S
Br713      C1592   1.915       .  S
C715        C716   1.405       .  A
C715        C720   1.393       .  A
C715       Br722   1.923       .  S
C716        C717   1.427       .  A
C717        C718   1.405       .  A
C717       Br724   1.932       .  S
C718        C719   1.404       .  A
C718       Br723   1.931       .  S
C719        C720   1.408       .  A
C720       Br721   1.920       .  S
C725        C726   1.408       .  A
C725        C730   1.408       .  A
C725       Br732   1.932       .  S
C726        C727   1.408       .  A
C727        C728   1.404       .  A
C727       Br734   1.930       .  S
C728        C729   1.411       .  A
C728       Br733   1.927       .  S
C729        C730   1.419       .  A
C730       Br731   1.934       .  S
C735        C736   1.414       .  A
C735        C740   1.409       .  A
C735       Br742   1.931       .  S
C736        C737   1.411       .  A
C737        C738   1.414       .  A
C737       Br744   1.930       .  S
C738        C739   1.422       .  A
C738       Br743   1.932       .  S
C739        C740   1.412       .  A
C740       Br741   1.927       .  S
C745        C746   1.408       .  A
C745        C750   1.406       .  A
C745       Br752   1.935       .  S
C746        C747   1.412       .  A
C747        C748   1.414       .  A
C747       Br754   1.929       .  S
C748        C749   1.417       .  A
C748       Br753   1.927       .  S
C749        C750   1.422       .  A
C750       Br751   1.935       .  S
C755        C756   1.409       .  A
C755        C760   1.401       .  A
C755       Br762   1.924       .  S
C756        C757   1.426       .  A
C757        C758   1.409       .  A
C757       Br764   1.930       .  S
C758        C759   1.409       .  A
C758       Br763   1.932       .  S
C759        C760   1.409       .  A
C760       Br761   1.914       .  S
C765        C766   1.406       .  A
C765        C770   1.395       .  A
C765       Br772   1.920       .  S
C766        C767   1.419       .  A
C767        C768   1.413       .  A
C767       Br774   1.928       .  S
C768        C769   1.409       .  A
C768       Br773   1.930       .  S
C769        C770   1.401       .  A
C770       Br771   1.920       .  S
C775        C776   1.417       .  A
C775        C780   1.416       .  A
C775       Br782   1.933       .  S
C776        C777   1.413       .  A
C777        C778   1.406       .  A
C777       Br784   1.921       .  S
C778        C779   1.415       .  A
C778       Br783   1.940       .  S
C779        C780   1.413       .  A
C780       Br781   1.921       .  S
C785        C786   1.415       .  A
C785        C790   1.408       .  A
C785       Br792   1.936       .  S
C786        C787   1.406       .  A
C787        C788   1.410       .  A
C787       Br794   1.929       .  S
C788        C789   1.425       .  A
C788      Br1677   1.936       .  S
C789        C790   1.415       .  A
C790       Br791   1.922       .  S
Br793      C1672   1.936       .  S
C795        C796   1.407       .  A
C795        C800   1.416       .  A
C795       Br802   1.930       .  S
C796        C797   1.404       .  A
C797        C798   1.410       .  A
C797       Br804   1.923       .  S
C798        C799   1.417       .  A
C798       Br803   1.921       .  S
C799        C800   1.420       .  A
C800       Br801   1.922       .  S
C805        C806   1.411       .  A
C805        C810   1.413       .  A
C805       Br812   1.928       .  S
C806        C807   1.414       .  A
C807        C808   1.407       .  A
C807       Br814   1.939       .  S
C808        C809   1.412       .  A
C808       Br813   1.926       .  S
C809        C810   1.423       .  A
C810       Br811   1.936       .  S
C815        C816   1.416       .  A
C815        C820   1.415       .  A
C815       Br822   1.926       .  S
C816        C817   1.409       .  A
C817        C818   1.407       .  A
C817       Br824   1.923       .  S
C818        C819   1.416       .  A
C818       Br823   1.933       .  S
C819        C820   1.413       .  A
C820       Br821   1.932       .  S
C825        C826   1.416       .  A
C825        C830   1.413       .  A
C825       Br832   1.929       .  S
C826        C827   1.411       .  A
C827        C828   1.401       .  A
C827       Br834   1.923       .  S
C828        C829   1.403       .  A
C828       Br833   1.924   1_556  S
C829        C830   1.410       .  A
C830       Br831   1.930       .  S
C835        C836   1.417       .  A
C835        C840   1.423       .  A
C835       Br842   1.927       .  S
C836        C837   1.404       .  A
C837        C838   1.403       .  A
C837       Br844   1.928       .  S
C838        C839   1.415       .  A
C838       Br843   1.928       .  S
C839        C840   1.418       .  A
C840       Br841   1.929       .  S
C845        C846   1.429       .  A
C845        C850   1.406       .  A
C845       Br852   1.938       .  S
C846        C847   1.421       .  A
C847        C848   1.416       .  A
C847       Br854   1.934       .  S
C848        C849   1.412       .  A
C848       Br853   1.928       .  S
C849        C850   1.407       .  A
C850       Br851   1.936       .  S
C855        C856   1.408       .  A
C855        C860   1.412       .  A
C855       Br862   1.931       .  S
C856        C857   1.411       .  A
C857        C858   1.402       .  A
C857       Br864   1.934       .  S
C858        C859   1.412       .  A
C858       Br863   1.929       .  S
C859        C860   1.417       .  A
C860       Br861   1.924       .  S
C865        C866   1.417       .  A
C865        C870   1.411       .  A
C865       Br872   1.938       .  S
C866        C867   1.406       .  A
C867        C868   1.412       .  A
C867       Br874   1.929   1_554  S
C868        C869   1.420       .  A
C868      Br2641   1.918       .  S
C869        C870   1.416       .  A
C870       Br871   1.930       .  S
Br873      C2636   1.918       .  S
C875        C876   1.405       .  A
C875        C880   1.411       .  A
C875       Br882   1.926       .  S
C876        C877   1.414       .  A
C877        C878   1.412       .  A
C877       Br884   1.934       .  S
C878        C879   1.415       .  A
C878       Br883   1.930       .  S
C879        C880   1.418       .  A
C880       Br881   1.921       .  S
O885       Ni891   1.917       .  S
O885        C906   1.270       .  A
O886       Ni909   1.945   1_556  S
O886        C895   1.280       .  A
O887       Ni891   1.903       .  S
O887       Ni909   1.924       .  S
O887       Ni903   1.926       .  S
O887        H910   0.975       .  S
C888        O905   1.276       .  A
C888        O897   1.277       .  A
C888       C1713   1.479       .  S
O889       Ni908   1.908       .  S
O889        C895   1.264       .  A
O890       Ni908   1.908       .  S
O890        C892   1.267   1_556  A
Ni891       O894   1.932       .  S
Ni891       O896   1.897   1_554  S
C892        O902   1.279       .  A
C892       C1723   1.501       .  S
O893       Ni909   1.930       .  S
O893        C899   1.281       .  A
O894        C899   1.272       .  A
C895       C1760   1.487       .  S
O896        C898   1.261       .  A
O897       Ni908   1.923       .  S
C898        O904   1.280       .  A
C898       C1730   1.508       .  S
C899       C1750   1.491       .  S
H900        O901   0.968       .  S
O901       Ni909   1.920   1_556  S
O901       Ni903   1.900   1_556  S
O901       Ni908   1.899       .  S
O902       Ni903   1.957       .  S
Ni903       O907   1.909       .  S
Ni903       O905   1.930   1_554  S
O904       Ni909   1.971   1_556  S
C906        O907   1.269       .  A
C906       C1740   1.482       .  S
O911       Ni917   1.923       .  S
O911        C932   1.269       .  A
O912       Ni935   1.907       .  S
O912        C921   1.266       .  A
O913       Ni917   1.888       .  S
O913       Ni935   1.895       .  S
O913       Ni929   1.922       .  S
O913        H936   0.966       .  S
C914        O931   1.283       .  A
C914        O923   1.276       .  A
C914       C1670   1.488       .  S
O915       Ni934   1.930       .  S
O915        C921   1.274       .  A
O916       Ni934   1.908       .  S
O916        C918   1.270       .  A
Ni917       O920   1.935       .  S
Ni917       O922   1.903       .  S
C918        O928   1.276       .  A
C918       C1660   1.497       .  S
O919       Ni935   1.940       .  S
O919        C925   1.280       .  A
O920        C925   1.281       .  A
C921       C1653   1.475       .  S
O922        C924   1.265       .  A
O923       Ni934   1.913       .  S
C924        O930   1.275       .  A
C924       C1703   1.495       .  S
C925       C1680   1.490       .  S
H926        O927   0.964       .  S
O927       Ni935   1.918       .  S
O927       Ni929   1.907       .  S
O927       Ni934   1.894       .  S
O928       Ni929   1.942       .  S
Ni929       O933   1.929       .  S
Ni929       O931   1.940       .  S
O930       Ni935   1.941       .  S
C932        O933   1.276       .  A
C932       C1690   1.491       .  S
N937        C942   1.358       .  A
N937        H969   1.038       .  S
N938        C945   1.351       .  A
N938        C946   1.354       .  A
N939        C944   1.352       .  A
N939        H970   1.030       .  S
N940        C947   1.352       .  A
N940        C948   1.353       .  A
C941        C949   1.389       .  A
C941        C957   1.425       .  A
C942        C958   1.420       .  A
C942        C950   1.385       .  A
C943        C951   1.387       .  A
C943        C960   1.421       .  A
C944        C959   1.421       .  A
C944        C952   1.389       .  A
C945        C957   1.422       .  A
C945        C953   1.387       .  A
C946        C960   1.423       .  A
C946        C954   1.386       .  A
C947        C955   1.386       .  A
C947        C958   1.419       .  A
C948        C956   1.385       .  A
C948        C959   1.419       .  A
C949        H961   1.082       .  S
C950        H962   1.081       .  S
C951        H963   1.082       .  S
C952        H964   1.082       .  S
C953        C954   1.373       .  A
C953        H965   1.082       .  S
C954        H966   1.081       .  S
C955        C956   1.370       .  A
C955        H967   1.080       .  S
C956        H968   1.081       .  S
C957       C1643   1.502       .  S
C958       C1630   1.500       .  S
C959       C1610   1.490       .  S
C960       C1620   1.506       .  S
N971        C976   1.352       .  A
N971        C975   1.355       .  A
N971       H1003   1.043       .  S
N972        C979   1.348       .  A
N972        C980   1.348       .  A
N973        C978   1.352       .  A
N973        C977   1.348       .  A
N973       H1004   1.044       .  S
N974        C981   1.342       .  A
N974        C982   1.350       .  A
C975        C983   1.388       .  A
C975        C991   1.421       .  A
C976        C992   1.416       .  A
C976        C984   1.388       .  A
C977        C985   1.389       .  A
C977        C994   1.416       .  A
C978        C993   1.416       .  A
C978        C986   1.386       .  A
C979        C991   1.407       .  A
C979        C987   1.384       .  A
C980        C994   1.416       .  A
C980        C988   1.388       .  A
C981        C989   1.388       .  A
C981        C992   1.408       .  A
C982        C990   1.384       .  A
C982        C993   1.411       .  A
C983        C984   1.373       .  A
C983        H995   1.081       .  S
C984        H996   1.082       .  S
C985        C986   1.383       .  A
C985        H997   1.082       .  S
C986        H998   1.082       .  S
C987        C988   1.378       .  A
C987        H999   1.079       .  S
C988       H1000   1.082       .  S
C989        C990   1.382       .  A
C989       H1001   1.082       .  S
C990       H1002   1.082       .  S
C991       C1590   1.498       .  S
C992       C1603   1.485       .  S
C993       C1573   1.505       .  S
C994       C1583   1.500       .  S
N1005      C1010   1.358       .  A
N1005      C2777   1.357   1_455  A
N1005      H1037   1.041       .  S
N1006      C1013   1.353       .  A
N1006      C1014   1.354       .  A
N1007      C1012   1.352       .  A
N1007      C2779   1.351   1_455  A
N1007      H1038   1.039       .  S
N1008      C1015   1.357       .  A
N1008      C1016   1.359       .  A
C1009      N2773   1.357       .  A
C1009      C1017   1.387       .  A
C1009      C1025   1.422       .  A
C1010      C1026   1.418       .  A
C1010      C1018   1.386       .  A
C1011      N2775   1.351       .  A
C1011      C1019   1.384       .  A
C1011      C1028   1.409       .  A
C1012      C1027   1.415       .  A
C1012      C1020   1.389       .  A
C1013      C1025   1.423       .  A
C1013      C1021   1.387       .  A
C1014      C1028   1.420       .  A
C1014      C1022   1.385       .  A
C1015      C1023   1.394       .  A
C1015      C1026   1.440       .  A
C1016      C1024   1.375       .  A
C1016      C1027   1.418       .  A
C1017      C2786   1.371       .  A
C1017      H1029   1.081       .  S
C1018      C2785   1.371   1_455  A
C1018      H1030   1.082       .  S
C1019      C2788   1.374       .  A
C1019      H1031   1.082       .  S
C1020      C2787   1.374       .  A
C1020      H1032   1.082       .  S
C1021      C1022   1.375       .  A
C1021      H1033   1.082       .  S
C1022      H1034   1.080       .  S
C1023      C1024   1.357       .  A
C1023      H1035   1.067       .  S
C1024      H1036   1.081       .  S
C1025      C1530   1.511       .  S
C1026      C1540   1.519       .  S
C1027      C1550   1.508       .  S
C1028      C1560   1.501       .  S
C1039      C1650   1.484       .  S
C1039      C2808   1.412       .  A
C1039      C1044   1.403       .  A
C1040      C1520   1.487       .  S
C1040      C2807   1.412   1_455  A
C1040      C1041   1.392       .  A
C1041      C1042   1.399       .  A
C1041      H1046   1.085       .  S
C1042      C1600   1.491       .  S
C1042      C2811   1.432   1_455  A
C1043      C1633   1.507       .  S
C1043      C2810   1.432       .  A
C1043      C1044   1.410       .  A
C1044      H1045   1.084       .  S
C1047      C1673   1.507       .  S
C1047      C1052   1.413       .  A
C1048      C1510   1.500       .  S
C1048      C1049   1.404       .  A
C1049      C1050   1.399       .  A
C1049      H1054   1.086       .  S
C1050      C1553   1.480       .  S
C1051      C1593   1.506       .  S
C1051      C1052   1.402       .  A
C1052      H1053   1.084       .  S
C1055      C1763   1.500       .  S
C1055      C1056   1.428       .  A
C1055      C1060   1.403       .  A
C1056      C1500   1.502       .  S
C1056      C1057   1.410       .  A
C1057      C1058   1.410       .  A
C1057      H1062   1.084       .  S
C1058      C1623   1.509       .  S
C1058      C1059   1.430       .  A
C1059      C1533   1.502       .  S
C1059      C1060   1.403       .  A
C1060      H1061   1.084       .  S
C1063      C1700   1.496       .  S
C1063      C1064   1.423       .  A
C1063      C1068   1.408       .  A
C1064      C1490   1.495       .  S
C1064      C1065   1.400       .  A
C1065      C1066   1.404       .  A
C1065      H1070   1.084       .  S
C1066      C1640   1.506       .  S
C1066      C1067   1.433       .  A
C1067      C1563   1.506       .  S
C1067      C1068   1.409       .  A
C1068      H1069   1.084       .  S
C1071      C1710   1.489       .  S
C1071      C1076   1.392       .  A
C1072      C1480   1.482       .  S
C1072      C1073   1.408       .  A
C1073      C1074   1.405       .  A
C1073      H1078   1.083       .  S
C1074      C1543   1.509       .  S
C1075      C1580   1.480       .  S
C1075      C1076   1.397       .  A
C1076      H1077   1.086       .  S
C1079      C1733   1.492       .  S
C1079      C2848   1.427       .  A
C1079      C1084   1.406       .  A
C1080      C1470   1.499       .  S
C1080      C2847   1.427   1_455  A
C1080      C1081   1.403       .  A
C1081      C1082   1.398       .  A
C1081      H1086   1.085       .  S
C1082      C1570   1.497       .  S
C1082      C2851   1.422   1_455  A
C1083      C1613   1.493       .  S
C1083      C2850   1.422       .  A
C1083      C1084   1.404       .  A
C1084      H1085   1.085       .  S
O1087     Ni1093   1.927       .  S
O1087      C1108   1.272       .  A
O1088     Ni1111   1.936       .  S
O1088      C1097   1.277       .  A
O1089     Ni1093   1.903       .  S
O1089     Ni1111   1.920       .  S
O1089     Ni1105   1.911       .  S
O1089      H1112   0.968       .  S
C1090      O1107   1.270       .  A
C1090      O1099   1.276       .  A
C1090      C1523   1.470       .  S
O1091     Ni1110   1.915       .  S
O1091      C1097   1.266       .  A
O1092     Ni1110   1.908       .  S
O1092      C1094   1.266       .  A
Ni1093     O1096   1.927       .  S
Ni1093     O1098   1.901       .  S
C1094      O1104   1.278       .  A
C1094      C1440   1.512       .  S
O1095     Ni1111   1.925       .  S
O1095      C1101   1.280       .  A
O1096      C1101   1.273       .  A
C1097      C1493   1.488       .  S
O1098      C1100   1.265       .  A
O1099     Ni1110   1.924       .  S
C1100      O1106   1.278       .  A
C1100      C1513   1.495       .  S
C1101      C1460   1.476       .  S
H1102      O1103   0.965       .  S
O1103     Ni1111   1.917       .  S
O1103     Ni1105   1.908       .  S
O1103     Ni1110   1.903       .  S
O1104     Ni1105   1.950       .  S
Ni1105     O1109   1.904       .  S
Ni1105     O1107   1.913       .  S
O1106     Ni1111   1.961       .  S
C1108      O1109   1.266       .  A
C1108      C1450   1.485       .  S
O1113     Ni1119   1.911       .  S
O1113      C1134   1.265       .  A
O1114     Ni1137   1.905       .  S
O1114      C1123   1.268       .  A
O1115     Ni1119   1.887       .  S
O1115     Ni1137   1.889   1_554  S
O1115     Ni1131   1.922   1_554  S
O1115      H1138   0.966       .  S
C1116      O1133   1.283       .  A
C1116      O1125   1.275       .  A
C1116      C1473   1.491       .  S
O1117     Ni1136   1.920       .  S
O1117      C1123   1.272       .  A
O1118     Ni1136   1.899   1_554  S
O1118      C1120   1.261       .  A
Ni1119     O1122   1.925       .  S
Ni1119     O1124   1.908       .  S
C1120      O1130   1.284       .  A
C1120      C1420   1.512       .  S
O1121     Ni1137   1.931   1_554  S
O1121      C1127   1.278       .  A
O1122      C1127   1.280       .  A
C1123      C1483   1.475       .  S
O1124      C1126   1.265   1_554  A
O1125     Ni1136   1.934       .  S
C1126      O1132   1.280       .  A
C1126      C1503   1.501       .  S
C1127      C1430   1.483       .  S
H1128      O1129   0.965       .  S
O1129     Ni1137   1.921       .  S
O1129     Ni1131   1.919       .  S
O1129     Ni1136   1.892       .  S
O1130     Ni1131   1.987   1_554  S
Ni1131     O1135   1.948   1_556  S
Ni1131     O1133   1.932       .  S
O1132     Ni1137   1.956       .  S
C1134      O1135   1.283       .  A
C1134      C1413   1.488       .  S
N1139      C2912   1.353       .  A
N1139      C1143   1.353       .  A
N1139      H1171   1.043       .  S
N1140      C1147   1.346       .  A
N1140      C1148   1.345       .  A
N1141      C2914   1.355       .  A
N1141      C1145   1.356       .  A
N1141      H1172   1.038       .  S
N1142      C1149   1.360       .  A
N1142      C1150   1.356       .  A
C1143      C1151   1.380       .  A
C1143      C1159   1.409       .  A
C1144      N2907   1.353   1_455  A
C1144      C1160   1.419       .  A
C1144      C1152   1.389       .  A
C1145      C1153   1.383       .  A
C1145      C1162   1.419       .  A
C1146      N2909   1.355   1_455  A
C1146      C1161   1.424       .  A
C1146      C1154   1.391       .  A
C1147      C1159   1.402       .  A
C1147      C1155   1.383       .  A
C1148      C1162   1.408       .  A
C1148      C1156   1.388       .  A
C1149      C1157   1.379       .  A
C1149      C1160   1.422       .  A
C1150      C1158   1.390       .  A
C1150      C1161   1.434       .  A
C1151      C2920   1.376       .  A
C1151      H1163   1.082       .  S
C1152      C2919   1.376   1_455  A
C1152      H1164   1.071       .  S
C1153      C2922   1.369       .  A
C1153      H1165   1.082       .  S
C1154      C2921   1.369   1_455  A
C1154      H1166   1.077       .  S
C1155      C1156   1.374       .  A
C1155      H1167   1.081       .  S
C1156      H1168   1.081       .  S
C1157      C1158   1.366       .  A
C1157      H1169   1.080       .  S
C1158      H1170   1.078       .  S
C1159      C1380   1.487       .  S
C1160      C1400   1.532       .  S
C1161      C1393   1.505       .  S
C1162      C1373   1.491       .  S
N1173      C1178   1.347       .  A
N1173      C1177   1.355       .  A
N1173      H1205   1.040       .  S
N1174      C1181   1.347       .  A
N1174      C1182   1.347       .  A
N1175      C1180   1.350       .  A
N1175      C1179   1.353       .  A
N1175      H1206   1.040       .  S
N1176      C1183   1.354       .  A
N1176      C1184   1.353       .  A
C1177      C1185   1.388       .  A
C1177      C1193   1.420       .  A
C1178      C1194   1.411       .  A
C1178      C1186   1.386       .  A
C1179      C1187   1.385       .  A
C1179      C1196   1.416       .  A
C1180      C1195   1.411       .  A
C1180      C1188   1.387       .  A
C1181      C1193   1.412       .  A
C1181      C1189   1.387       .  A
C1182      C1196   1.408       .  A
C1182      C1190   1.384       .  A
C1183      C1191   1.385       .  A
C1183      C1194   1.413       .  A
C1184      C1192   1.388       .  A
C1184      C1195   1.420       .  A
C1185      C1186   1.383       .  A
C1185      H1197   1.082       .  S
C1186      H1198   1.082       .  S
C1187      C1188   1.372       .  A
C1187      H1199   1.082       .  S
C1188      H1200   1.074       .  S
C1189      C1190   1.378       .  A
C1189      H1201   1.082       .  S
C1190      H1202   1.079       .  S
C1191      C1192   1.369       .  A
C1191      H1203   1.081       .  S
C1192      H1204   1.082       .  S
C1193      C1353   1.502       .  S
C1194      C1330   1.494       .  S
C1195      C1340   1.498       .  S
C1196      C1360   1.496       .  S
C1207      C1663   1.497       .  S
C1207      C1212   1.409       .  A
C1208      C1463   1.496       .  S
C1208      C1209   1.409       .  A
C1209      C1210   1.398       .  A
C1209      H1214   1.085       .  S
C1210      C1350   1.489       .  S
C1211      C1370   1.488       .  S
C1211      C1212   1.401       .  A
C1212      H1213   1.085       .  S
N1215      C1219   1.361       .  A
N1215      H1247   1.039       .  S
N1216      C1223   1.360       .  A
N1216      C1224   1.353       .  A
N1217      C1221   1.356   1_545  A
N1217      H1248   1.037       .  S
N1218      C1225   1.356       .  A
N1218      C1226   1.361       .  A
C1219      C1227   1.387       .  A
C1219      C1235   1.428       .  A
C1220      C1236   1.421       .  A
C1220      C1228   1.387       .  A
C1221      C1229   1.387       .  A
C1221      C1238   1.422       .  A
C1222      C1237   1.428       .  A
C1222      C1230   1.388       .  A
C1223      C1235   1.425       .  A
C1223      C1231   1.385       .  A
C1224      C1238   1.423       .  A
C1224      C1232   1.382       .  A
C1225      C1233   1.388       .  A
C1225      C1236   1.432       .  A
C1226      C1234   1.380       .  A
C1226      C1237   1.422       .  A
C1227      H1239   1.082       .  S
C1228      H1240   1.082       .  S
C1229      H1241   1.082       .  S
C1230      H1242   1.081       .  S
C1231      C1232   1.374       .  A
C1231      H1243   1.082       .  S
C1232      H1244   1.075       .  S
C1233      C1234   1.373       .  A
C1233      H1245   1.076       .  S
C1234      H1246   1.081       .  S
C1235      C1290   1.529       .  S
C1236      C1310   1.509       .  S
C1237      C1320   1.527       .  S
C1238      C1303   1.504       .  S
C1249      C1743   1.487       .  S
C1249      C1254   1.407       .  A
C1250      C1433   1.497       .  S
C1250      C1251   1.406       .  A
C1251      C1252   1.402       .  A
C1251      H1256   1.085       .  S
C1252      C1363   1.481       .  S
C1253      C1383   1.491       .  S
C1253      C1254   1.398       .  A
C1254      H1255   1.085       .  S
C1257      C1443   1.517       .  S
C1257      C1258   1.431       .  A
C1257      C1262   1.412       .  A
C1258      C1693   1.497       .  S
C1258      C1259   1.400       .  A
C1259      C1260   1.396       .  A
C1259      H1264   1.086       .  S
C1260      C1313   1.502       .  S
C1260      C1261   1.436       .  A
C1261      C1390   1.521       .  S
C1261      C1262   1.414       .  A
C1262      H1263   1.076       .  S
C1265      C1410   1.499       .  S
C1265      C1266   1.436       .  A
C1265      C1270   1.392       .  A
C1266      C1720   1.502       .  S
C1266      C1267   1.428       .  A
C1267      C1268   1.429       .  A
C1267      H1272   1.079       .  S
C1268      C1323   1.558       .  S
C1268      C1269   1.370       .  A
C1269      C1403   1.387       .  S
C1269      C1270   1.380       .  A
C1270      H1271   1.086       .  S
C1273      C1683   1.506       .  S
C1273      C3042   1.427       .  A
C1273      C1278   1.403       .  A
C1274      C1453   1.493       .  S
C1274      C3041   1.427   1_455  A
C1274      C1275   1.414       .  A
C1275      C1276   1.408       .  A
C1275      H1280   1.085       .  S
C1276      C1293   1.510       .  S
C1276      C3045   1.427   1_455  A
C1277      C1333   1.494       .  S
C1277      C3044   1.427       .  A
C1277      C1278   1.408       .  A
C1278      H1279   1.085       .  S
C1281      C1753   1.502       .  S
C1281      C3050   1.423       .  A
C1281      C1286   1.400       .  A
C1282      C1423   1.507       .  S
C1282      C3049   1.423   1_455  A
C1282      C1283   1.414       .  A
C1283      C1284   1.419       .  A
C1283      H1288   1.084       .  S
C1284      C1300   1.512       .  S
C1284      C3053   1.434   1_455  A
C1285      C1343   1.513       .  S
C1285      C3052   1.434       .  A
C1285      C1286   1.404       .  A
C1286      H1287   1.084       .  S
C1289      C1290   1.417       .  A
C1289      C1294   1.410       .  A
C1289     Br1296   1.923       .  S
C1290      C1291   1.424       .  A
C1291      C1292   1.424       .  A
C1291     Br1298   1.929       .  S
C1292      C1293   1.412       .  A
C1292     Br1297   1.926       .  S
C1293      C1294   1.409       .  A
C1294     Br3063   1.932       .  S
Br1295     C3062   1.932       .  S
C1299      C1300   1.424       .  A
C1299      C1304   1.411       .  A
C1299     Br1306   1.934       .  S
C1300      C1301   1.418       .  A
C1301      C1302   1.417       .  A
C1301     Br3076   1.929   1_455  S
C1302      C1303   1.412       .  A
C1302     Br3075   1.929   1_455  S
C1303      C1304   1.407       .  A
C1304     Br1305   1.934       .  S
Br1307     C3070   1.929       .  S
Br1308     C3069   1.929       .  S
C1309      C1310   1.411       .  A
C1309      C1314   1.412       .  A
C1309     Br1316   1.930       .  S
C1310      C1311   1.419       .  A
C1311      C1312   1.412       .  A
C1311     Br1318   1.928       .  S
C1312      C1313   1.408       .  A
C1312     Br1317   1.930       .  S
C1313      C1314   1.420       .  A
C1314     Br1315   1.935       .  S
C1319      C1320   1.388       .  A
C1319      C1324   1.380       .  A
C1319     Br1326   1.934       .  S
C1320      C1321   1.438       .  A
C1321      C1322   1.511       .  A
C1321     Br1328   1.960       .  S
C1322      C1323   1.536       .  A
C1322     Br1327   3.719       .  S
C1323      C1324   1.411       .  A
C1324     Br1325   1.940       .  S
C1329      C1330   1.409       .  A
C1329      C1334   1.394       .  A
C1329     Br1336   1.927       .  S
C1330      C1331   1.410       .  A
C1331      C1332   1.413       .  A
C1331     Br1338   1.929       .  S
C1332      C1333   1.421       .  A
C1332     Br1337   1.927       .  S
C1333      C1334   1.405       .  A
C1334     Br1335   1.915       .  S
C1339      C1340   1.411       .  A
C1339      C1344   1.402       .  A
C1339     Br1346   1.928       .  S
C1340      C1341   1.405       .  A
C1341      C1342   1.408       .  A
C1341     Br1348   1.927       .  S
C1342      C1343   1.429       .  A
C1342     Br1347   1.933       .  S
C1343      C1344   1.412       .  A
C1344     Br3113   1.920       .  S
Br1345     C3112   1.920       .  S
C1349      C1350   1.409       .  A
C1349      C1354   1.406       .  A
C1349     Br1356   1.924       .  S
C1350      C1351   1.409       .  A
C1351      C1352   1.408       .  A
C1351     Br1358   1.929       .  S
C1352      C1353   1.417       .  A
C1352     Br1357   1.925       .  S
C1353      C1354   1.415       .  A
C1354     Br1355   1.935       .  S
C1359      C1360   1.415       .  A
C1359      C1364   1.409       .  A
C1359     Br1366   1.930       .  S
C1360      C1361   1.415       .  A
C1361      C1362   1.400       .  A
C1361     Br1368   1.933       .  S
C1362      C1363   1.404       .  A
C1362     Br1367   1.928       .  S
C1363      C1364   1.410       .  A
C1364     Br1365   1.927       .  S
C1369      C1370   1.413       .  A
C1369      C1374   1.408       .  A
C1369     Br1376   1.930       .  S
C1370      C1371   1.409       .  A
C1371      C1372   1.402       .  A
C1372      C1373   1.409       .  A
C1372     Br1377   1.932       .  S
C1373      C1374   1.412       .  A
C1374     Br1375   1.931       .  S
C1379      C1380   1.409       .  A
C1379      C1384   1.410       .  A
C1379     Br1386   1.929       .  S
C1380      C1381   1.406       .  A
C1381      C1382   1.401       .  A
C1381     Br1388   1.927       .  S
C1382      C1383   1.408       .  A
C1382     Br1387   1.921       .  S
C1383      C1384   1.414       .  A
C1384     Br1385   1.927       .  S
C1389      C1390   1.433       .  A
C1389      C1394   1.421       .  A
C1389     Br1396   1.930       .  S
C1390      C1391   1.402       .  A
C1391      C1392   1.391       .  A
C1391     Br1398   1.916       .  S
C1392      C1393   1.397       .  A
C1392     Br1397   1.917       .  S
C1393      C1394   1.416       .  A
C1394     Br1395   1.928       .  S
C1399      C1400   1.652       .  A
C1399      C1404   1.606       .  A
C1399     Br1406   1.925       .  S
C1400      C1401   1.629       .  A
C1401      C1402   1.598       .  A
C1401     Br1408   1.931       .  S
C1402      C1403   1.617       .  A
C1402     Br1407   1.924       .  S
C1403      C1404   1.606       .  A
C1404     Br1405   1.919       .  S
C1409      C1410   1.413       .  A
C1409      C1414   1.410       .  A
C1409     Br1416   1.926       .  S
C1410      C1411   1.422       .  A
C1411      C1412   1.414       .  A
C1411     Br1418   1.924       .  S
C1412      C1413   1.406       .  A
C1412     Br1417   1.928   1_554  S
C1413      C1414   1.414       .  A
C1414     Br1415   1.936       .  S
C1419      C1420   1.417       .  A
C1419      C1424   1.422       .  A
C1419     Br1426   1.932       .  S
C1420      C1421   1.427       .  A
C1421      C1422   1.410       .  A
C1421     Br1428   1.939   1_554  S
C1422      C1423   1.408       .  A
C1422     Br1427   1.931       .  S
C1423      C1424   1.418       .  A
C1424     Br1425   1.925       .  S
C1429      C1430   1.406       .  A
C1429      C1434   1.405       .  A
C1429     Br1436   1.929   1_554  S
C1430      C1431   1.408       .  A
C1431      C1432   1.412       .  A
C1431     Br1438   1.930       .  S
C1432      C1433   1.418       .  A
C1432     Br1437   1.926       .  S
C1433      C1434   1.413       .  A
C1434     Br1435   1.919       .  S
C1439      C1440   1.418       .  A
C1439      C1444   1.420       .  A
C1439     Br1446   1.934       .  S
C1440      C1441   1.423       .  A
C1441      C1442   1.413       .  A
C1441     Br1448   1.939       .  S
C1442      C1443   1.413       .  A
C1442     Br1447   1.924       .  S
C1443      C1444   1.423       .  A
C1444     Br1445   1.935       .  S
C1449      C1450   1.411       .  A
C1449      C1454   1.404       .  A
C1449     Br1456   1.936       .  S
C1450      C1451   1.411       .  A
C1451      C1452   1.414       .  A
C1451     Br1458   1.933       .  S
C1452      C1453   1.416       .  A
C1452     Br1457   1.927       .  S
C1453      C1454   1.412       .  A
C1454     Br3223   1.923       .  S
Br1455     C3222   1.923       .  S
C1459      C1460   1.408       .  A
C1459      C1464   1.401       .  A
C1459     Br1466   1.940       .  S
C1460      C1461   1.408       .  A
C1461      C1462   1.416       .  A
C1461     Br1468   1.927       .  S
C1462      C1463   1.416       .  A
C1463      C1464   1.417       .  A
C1464     Br1465   1.932       .  S
C1469      C1470   1.415       .  A
C1469      C1474   1.409       .  A
C1469     Br1476   1.933       .  S
C1470      C1471   1.419       .  A
C1471      C1472   1.413       .  A
C1471     Br1478   1.916       .  S
C1472      C1473   1.407       .  A
C1472     Br1477   1.929       .  S
C1473      C1474   1.417       .  A
C1474     Br1475   1.937       .  S
C1479      C1480   1.416       .  A
C1479      C1484   1.413       .  A
C1479     Br1486   1.928       .  S
C1480      C1481   1.409       .  A
C1481      C1482   1.398       .  A
C1481     Br1488   1.924       .  S
C1482      C1483   1.407       .  A
C1482     Br1487   1.934       .  S
C1483      C1484   1.408       .  A
C1484     Br1485   1.929       .  S
C1489      C1490   1.412       .  A
C1489      C1494   1.411       .  A
C1489     Br1496   1.930       .  S
C1490      C1491   1.417       .  A
C1491      C1492   1.410       .  A
C1491     Br1498   1.923       .  S
C1492      C1493   1.407       .  A
C1492     Br1497   1.929       .  S
C1493      C1494   1.416       .  A
C1494     Br1495   1.934       .  S
C1499      C1500   1.411       .  A
C1499      C1504   1.410       .  A
C1499     Br1506   1.926       .  S
C1500      C1501   1.416       .  A
C1501      C1502   1.417       .  A
C1501     Br1508   1.925       .  S
C1502      C1503   1.413       .  A
C1502     Br1507   1.931       .  S
C1503      C1504   1.418       .  A
C1504     Br1505   1.930   1_556  S
C1509      C1510   1.424       .  A
C1509      C1514   1.412       .  A
C1509     Br1516   1.937       .  S
C1510      C1511   1.407       .  A
C1511      C1512   1.409       .  A
C1511     Br1518   1.927       .  S
C1512      C1513   1.421       .  A
C1512     Br1517   1.935       .  S
C1513      C1514   1.411       .  A
C1514     Br1515   1.934       .  S
C1519      C1520   1.418       .  A
C1519      C1524   1.402       .  A
C1519     Br1526   1.925       .  S
C1520      C1521   1.416       .  A
C1521      C1522   1.410       .  A
C1521     Br1528   1.926       .  S
C1522      C1523   1.405       .  A
C1522     Br1527   1.929       .  S
C1523      C1524   1.399       .  A
C1524     Br1525   1.930       .  S
C1529      C1530   1.416       .  A
C1529      C1534   1.412       .  A
C1529     Br1536   1.932       .  S
C1530      C1531   1.413       .  A
C1531      C1532   1.401       .  A
C1531     Br1538   1.908       .  S
C1532      C1533   1.405       .  A
C1532     Br1537   1.927       .  S
C1533      C1534   1.421       .  A
C1534     Br1535   1.934       .  S
C1539      C1540   1.434       .  A
C1539      C1544   1.439       .  A
C1539     Br1546   1.924       .  S
C1540      C1541   1.387       .  A
C1541      C1542   1.388       .  A
C1542      C1543   1.385       .  A
C1543      C1544   1.434       .  A
C1544     Br1545   1.925       .  S
C1549      C1550   1.420       .  A
C1549      C1554   1.413       .  A
C1549     Br1556   1.931       .  S
C1550      C1551   1.415       .  A
C1551      C1552   1.397       .  A
C1551     Br1558   1.927       .  S
C1552      C1553   1.405       .  A
C1552     Br1557   1.936       .  S
C1553      C1554   1.408       .  A
C1554     Br1555   1.927       .  S
C1559      C1560   1.406       .  A
C1559      C1564   1.412       .  A
C1559     Br1566   1.931       .  S
C1560      C1561   1.416       .  A
C1561      C1562   1.409       .  A
C1561     Br1568   1.929       .  S
C1562      C1563   1.410       .  A
C1562     Br1567   1.930       .  S
C1563      C1564   1.424       .  A
C1564     Br1565   1.929       .  S
C1569      C1570   1.409       .  A
C1569      C1574   1.408       .  A
C1569     Br3344   1.929       .  S
C1570      C1571   1.417       .  A
C1571      C1572   1.406       .  A
C1571     Br1578   1.936       .  S
C1572      C1573   1.411       .  A
C1572     Br1577   1.928       .  S
C1573      C1574   1.418       .  A
C1574     Br1575   1.916       .  S
Br1576     C3337   1.929       .  S
C1579      C1580   1.403       .  A
C1579      C1584   1.393       .  A
C1580      C1581   1.408       .  A
C1581      C1582   1.408       .  A
C1581     Br1588   1.929       .  S
C1582      C1583   1.421       .  A
C1582     Br1587   1.926       .  S
C1583      C1584   1.417       .  A
C1584     Br1585   1.934       .  S
C1589      C1590   1.411       .  A
C1589      C1594   1.416       .  A
C1589     Br1596   1.927       .  S
C1590      C1591   1.409       .  A
C1591      C1592   1.398       .  A
C1591     Br1598   1.932       .  S
C1592      C1593   1.410       .  A
C1593      C1594   1.423       .  A
C1594     Br1595   1.931       .  S
C1599      C1600   1.405       .  A
C1599      C1604   1.393       .  A
C1599     Br1606   1.923       .  S
C1600      C1601   1.427       .  A
C1601      C1602   1.405       .  A
C1601     Br1608   1.932       .  S
C1602      C1603   1.404       .  A
C1602     Br1607   1.931       .  S
C1603      C1604   1.408       .  A
C1604     Br1605   1.920       .  S
C1609      C1610   1.408       .  A
C1609      C1614   1.408       .  A
C1609     Br1616   1.932       .  S
C1610      C1611   1.408       .  A
C1611      C1612   1.404       .  A
C1611     Br1618   1.930       .  S
C1612      C1613   1.411       .  A
C1612     Br1617   1.927       .  S
C1613      C1614   1.419       .  A
C1614     Br1615   1.934       .  S
C1619      C1620   1.414       .  A
C1619      C1624   1.409       .  A
C1619     Br1626   1.931       .  S
C1620      C1621   1.411       .  A
C1621      C1622   1.414       .  A
C1621     Br1628   1.930       .  S
C1622      C1623   1.422       .  A
C1622     Br1627   1.932       .  S
C1623      C1624   1.412       .  A
C1624     Br1625   1.927       .  S
C1629      C1630   1.408       .  A
C1629      C1634   1.406       .  A
C1629     Br1636   1.935       .  S
C1630      C1631   1.412       .  A
C1631      C1632   1.414       .  A
C1631     Br1638   1.929       .  S
C1632      C1633   1.417       .  A
C1632     Br1637   1.927       .  S
C1633      C1634   1.422       .  A
C1634     Br1635   1.935       .  S
C1639      C1640   1.409       .  A
C1639      C1644   1.401       .  A
C1639     Br1646   1.924       .  S
C1640      C1641   1.426       .  A
C1641      C1642   1.409       .  A
C1641     Br1648   1.930       .  S
C1642      C1643   1.409       .  A
C1642     Br1647   1.932       .  S
C1643      C1644   1.409       .  A
C1644     Br1645   1.914       .  S
C1649      C1650   1.406       .  A
C1649      C1654   1.395       .  A
C1649     Br1656   1.920       .  S
C1650      C1651   1.419       .  A
C1651      C1652   1.413       .  A
C1651     Br1658   1.928       .  S
C1652      C1653   1.409       .  A
C1652     Br1657   1.930       .  S
C1653      C1654   1.401       .  A
C1654     Br1655   1.920       .  S
C1659      C1660   1.417       .  A
C1659      C1664   1.416       .  A
C1659     Br1666   1.933       .  S
C1660      C1661   1.413       .  A
C1661      C1662   1.406       .  A
C1661     Br1668   1.921       .  S
C1662      C1663   1.415       .  A
C1662     Br1667   1.940       .  S
C1663      C1664   1.413       .  A
C1664     Br1665   1.921       .  S
C1669      C1670   1.415       .  A
C1669      C1674   1.408       .  A
C1669     Br1676   1.936       .  S
C1670      C1671   1.406       .  A
C1671      C1672   1.410       .  A
C1671     Br1678   1.929       .  S
C1672      C1673   1.425       .  A
C1673      C1674   1.415       .  A
C1674     Br1675   1.922       .  S
C1679      C1680   1.407       .  A
C1679      C1684   1.416       .  A
C1679     Br1686   1.930       .  S
C1680      C1681   1.404       .  A
C1681      C1682   1.410       .  A
C1681     Br1688   1.923       .  S
C1682      C1683   1.417       .  A
C1682     Br1687   1.921       .  S
C1683      C1684   1.420       .  A
C1684     Br1685   1.922       .  S
C1689      C1690   1.411       .  A
C1689      C1694   1.413       .  A
C1689     Br1696   1.928       .  S
C1690      C1691   1.414       .  A
C1691      C1692   1.407       .  A
C1691     Br1698   1.939       .  S
C1692      C1693   1.412       .  A
C1692     Br1697   1.926       .  S
C1693      C1694   1.423       .  A
C1694     Br1695   1.936       .  S
C1699      C1700   1.416       .  A
C1699      C1704   1.415       .  A
C1699     Br1706   1.926       .  S
C1700      C1701   1.409       .  A
C1701      C1702   1.407       .  A
C1701     Br1708   1.923       .  S
C1702      C1703   1.416       .  A
C1702     Br1707   1.933       .  S
C1703      C1704   1.413       .  A
C1704     Br1705   1.932       .  S
C1709      C1710   1.416       .  A
C1709      C1714   1.413       .  A
C1709     Br1716   1.929       .  S
C1710      C1711   1.411       .  A
C1711      C1712   1.401       .  A
C1711     Br1718   1.923       .  S
C1712      C1713   1.403       .  A
C1712     Br1717   1.924   1_556  S
C1713      C1714   1.410       .  A
C1714     Br1715   1.930       .  S
C1719      C1720   1.417       .  A
C1719      C1724   1.423       .  A
C1719     Br1726   1.927       .  S
C1720      C1721   1.404       .  A
C1721      C1722   1.403       .  A
C1721     Br1728   1.928       .  S
C1722      C1723   1.415       .  A
C1722     Br1727   1.928       .  S
C1723      C1724   1.418       .  A
C1724     Br1725   1.929       .  S
C1729      C1730   1.429       .  A
C1729      C1734   1.406       .  A
C1729     Br1736   1.938       .  S
C1730      C1731   1.421       .  A
C1731      C1732   1.416       .  A
C1731     Br1738   1.934       .  S
C1732      C1733   1.412       .  A
C1732     Br1737   1.928       .  S
C1733      C1734   1.407       .  A
C1734     Br1735   1.936       .  S
C1739      C1740   1.408       .  A
C1739      C1744   1.412       .  A
C1739     Br1746   1.931       .  S
C1740      C1741   1.411       .  A
C1741      C1742   1.402       .  A
C1741     Br1748   1.934       .  S
C1742      C1743   1.412       .  A
C1742     Br1747   1.929       .  S
C1743      C1744   1.417       .  A
C1744     Br1745   1.924       .  S
C1749      C1750   1.417       .  A
C1749      C1754   1.411       .  A
C1749     Br1756   1.938       .  S
C1750      C1751   1.406       .  A
C1751      C1752   1.412       .  A
C1751     Br1758   1.929   1_554  S
C1752      C1753   1.420       .  A
C1752     Br3525   1.918       .  S
C1753      C1754   1.416       .  A
C1754     Br1755   1.930       .  S
Br1757     C3520   1.918       .  S
C1759      C1760   1.405       .  A
C1759      C1764   1.411       .  A
C1759     Br1766   1.926       .  S
C1760      C1761   1.414       .  A
C1761      C1762   1.412       .  A
C1761     Br1768   1.934       .  S
C1762      C1763   1.415       .  A
C1762     Br1767   1.930       .  S
C1763      C1764   1.418       .  A
C1764     Br1765   1.921       .  S
O1769     Ni1775   1.917       .  S
O1769      C1790   1.270       .  A
O1770     Ni1793   1.945   1_556  S
O1770      C1779   1.280       .  A
O1771     Ni1775   1.903       .  S
O1771     Ni1793   1.924       .  S
O1771     Ni1787   1.926       .  S
O1771      H1794   0.974       .  S
C1772      O1789   1.276       .  A
C1772      O1781   1.277       .  A
C1772      C2597   1.479       .  S
O1773     Ni1792   1.908       .  S
O1773      C1779   1.264       .  A
O1774     Ni1792   1.908       .  S
O1774      C1776   1.267   1_556  A
Ni1775     O1778   1.932       .  S
Ni1775     O1780   1.897   1_554  S
C1776      O1786   1.279       .  A
C1776      C2607   1.501       .  S
O1777     Ni1793   1.930       .  S
O1777      C1783   1.281       .  A
O1778      C1783   1.272       .  A
C1779      C2644   1.487       .  S
O1780      C1782   1.261       .  A
O1781     Ni1792   1.923       .  S
C1782      O1788   1.280       .  A
C1782      C2614   1.508       .  S
C1783      C2634   1.491       .  S
H1784      O1785   0.968       .  S
O1785     Ni1793   1.920   1_556  S
O1785     Ni1787   1.900   1_556  S
O1785     Ni1792   1.899       .  S
O1786     Ni1787   1.957       .  S
Ni1787     O1791   1.909       .  S
Ni1787     O1789   1.930   1_554  S
O1788     Ni1793   1.971   1_556  S
C1790      O1791   1.269       .  A
C1790      C2624   1.482       .  S
O1795     Ni1801   1.923       .  S
O1795      C1816   1.269       .  A
O1796     Ni1819   1.907       .  S
O1796      C1805   1.266       .  A
O1797     Ni1801   1.888       .  S
O1797     Ni1819   1.895       .  S
O1797     Ni1813   1.922       .  S
O1797      H1820   0.966       .  S
C1798      O1815   1.283       .  A
C1798      O1807   1.276       .  A
C1798      C2554   1.488       .  S
O1799     Ni1818   1.930       .  S
O1799      C1805   1.274       .  A
O1800     Ni1818   1.908       .  S
O1800      C1802   1.270       .  A
Ni1801     O1804   1.935       .  S
Ni1801     O1806   1.903       .  S
C1802      O1812   1.276       .  A
C1802      C2544   1.497       .  S
O1803     Ni1819   1.940       .  S
O1803      C1809   1.280       .  A
O1804      C1809   1.281       .  A
C1805      C2537   1.475       .  S
O1806      C1808   1.265       .  A
O1807     Ni1818   1.913       .  S
C1808      O1814   1.275       .  A
C1808      C2587   1.495       .  S
C1809      C2564   1.490       .  S
H1810      O1811   0.964       .  S
O1811     Ni1819   1.918       .  S
O1811     Ni1813   1.907       .  S
O1811     Ni1818   1.894       .  S
O1812     Ni1813   1.942       .  S
Ni1813     O1817   1.929       .  S
Ni1813     O1815   1.940       .  S
O1814     Ni1819   1.941       .  S
C1816      O1817   1.276       .  A
C1816      C2574   1.491       .  S
N1821      C1826   1.358       .  A
N1821      C2709   1.356   1_545  A
N1821      H1853   1.038       .  S
N1822      C1829   1.351       .  A
N1822      C1830   1.354       .  A
N1823      C1828   1.352       .  A
N1823      C2711   1.355   1_545  A
N1823      H1854   1.030       .  S
N1824      C1831   1.352       .  A
N1824      C1832   1.353       .  A
C1825      N2705   1.356       .  A
C1825      C1833   1.389       .  A
C1825      C1841   1.425       .  A
C1826      C1842   1.420       .  A
C1826      C1834   1.385       .  A
C1827      N2707   1.355       .  A
C1827      C1835   1.387       .  A
C1827      C1844   1.421       .  A
C1828      C1843   1.421       .  A
C1828      C1836   1.389       .  A
C1829      C1841   1.422       .  A
C1829      C1837   1.387       .  A
C1830      C1844   1.423       .  A
C1830      C1838   1.386       .  A
C1831      C1839   1.386       .  A
C1831      C1842   1.419       .  A
C1832      C1840   1.385       .  A
C1832      C1843   1.419       .  A
C1833      C2718   1.374       .  A
C1833      H1845   1.082       .  S
C1834      C2717   1.374   1_545  A
C1834      H1846   1.081       .  S
C1835      C2720   1.373       .  A
C1835      H1847   1.082       .  S
C1836      C2719   1.373   1_545  A
C1836      H1848   1.082       .  S
C1837      C1838   1.373       .  A
C1837      H1849   1.082       .  S
C1838      H1850   1.081       .  S
C1839      C1840   1.370       .  A
C1839      H1851   1.080       .  S
C1840      H1852   1.081       .  S
C1841      C2527   1.502       .  S
C1842      C2514   1.500       .  S
C1843      C2494   1.490       .  S
C1844      C2504   1.506       .  S
N1855      C1860   1.352       .  A
N1855      C1859   1.355       .  A
N1855      H1887   1.043       .  S
N1856      C1863   1.348       .  A
N1856      C1864   1.348       .  A
N1857      C1862   1.352       .  A
N1857      C1861   1.348       .  A
N1857      H1888   1.044       .  S
N1858      C1865   1.342       .  A
N1858      C1866   1.350       .  A
C1859      C1867   1.388       .  A
C1859      C1875   1.421       .  A
C1860      C1876   1.416       .  A
C1860      C1868   1.388       .  A
C1861      C1869   1.389       .  A
C1861      C1878   1.416       .  A
C1862      C1877   1.416       .  A
C1862      C1870   1.386       .  A
C1863      C1875   1.407       .  A
C1863      C1871   1.384       .  A
C1864      C1878   1.416       .  A
C1864      C1872   1.388       .  A
C1865      C1873   1.388       .  A
C1865      C1876   1.408       .  A
C1866      C1874   1.384       .  A
C1866      C1877   1.411       .  A
C1867      C1868   1.373       .  A
C1867      H1879   1.081       .  S
C1868      H1880   1.082       .  S
C1869      C1870   1.383       .  A
C1869      H1881   1.082       .  S
C1870      H1882   1.082       .  S
C1871      C1872   1.378       .  A
C1871      H1883   1.079       .  S
C1872      H1884   1.082       .  S
C1873      C1874   1.382       .  A
C1873      H1885   1.082       .  S
C1874      H1886   1.082       .  S
C1875      C2474   1.498       .  S
C1876      C2487   1.485       .  S
C1877      C2457   1.505       .  S
C1878      C2467   1.500       .  S
N1889      C1894   1.358       .  A
N1889      H1921   1.041       .  S
N1890      C1897   1.353       .  A
N1890      C1898   1.354       .  A
N1891      C1896   1.352       .  A
N1891      H1922   1.039       .  S
N1892      C1899   1.357       .  A
N1892      C1900   1.359       .  A
C1893      C1901   1.387       .  A
C1893      C1909   1.422       .  A
C1894      C1910   1.418       .  A
C1894      C1902   1.386       .  A
C1895      C1903   1.384   1_655  A
C1895      C1912   1.409       .  A
C1896      C1911   1.415       .  A
C1896      C1904   1.389       .  A
C1897      C1909   1.423       .  A
C1897      C1905   1.387       .  A
C1898      C1912   1.420       .  A
C1898      C1906   1.385       .  A
C1899      C1907   1.394       .  A
C1899      C1910   1.440       .  A
C1900      C1908   1.375       .  A
C1900      C1911   1.418       .  A
C1901      H1913   1.081       .  S
C1902      H1914   1.082       .  S
C1903      H1915   1.082   1_455  S
C1904      H1916   1.082       .  S
C1905      C1906   1.375       .  A
C1905      H1917   1.082       .  S
C1906      H1918   1.080       .  S
C1907      C1908   1.357       .  A
C1907      H1919   1.067       .  S
C1908      H1920   1.081       .  S
C1909      C2414   1.511       .  S
C1910      C2424   1.519       .  S
C1911      C2434   1.508       .  S
C1912      C2444   1.501       .  S
C1923      C2534   1.484       .  S
C1923      C1928   1.403       .  A
C1924      C2404   1.487       .  S
C1924      C1925   1.392       .  A
C1925      C1926   1.399       .  A
C1925      H1930   1.085       .  S
C1926      C2484   1.491       .  S
C1927      C2517   1.507       .  S
C1927      C1928   1.410       .  A
C1928      H1929   1.084       .  S
C1931      C2557   1.507       .  S
C1931      C2816   1.433   1_545  A
C1931      C1936   1.413       .  A
C1932      C2394   1.500       .  S
C1932      C2815   1.433       .  A
C1932      C1933   1.404       .  A
C1933      C1934   1.399       .  A
C1933      H1938   1.086       .  S
C1934      C2437   1.480       .  S
C1934      C2819   1.418       .  A
C1935      C2477   1.506       .  S
C1935      C2818   1.418   1_545  A
C1935      C1936   1.402       .  A
C1936      H1937   1.084       .  S
C1939      C2647   1.500       .  S
C1939      C1940   1.428       .  A
C1939      C1944   1.403       .  A
C1940      C2384   1.502       .  S
C1940      C1941   1.410       .  A
C1941      C1942   1.410       .  A
C1941      H1946   1.084       .  S
C1942      C2507   1.509       .  S
C1942      C1943   1.430       .  A
C1943      C2417   1.502       .  S
C1943      C1944   1.403       .  A
C1944      H1945   1.084       .  S
C1947      C2584   1.496       .  S
C1947      C1948   1.423       .  A
C1947      C1952   1.408       .  A
C1948      C2374   1.495       .  S
C1948      C1949   1.400       .  A
C1949      C1950   1.404       .  A
C1949      H1954   1.084       .  S
C1950      C2524   1.506       .  S
C1950      C1951   1.433       .  A
C1951      C2447   1.506       .  S
C1951      C1952   1.409       .  A
C1952      H1953   1.084       .  S
C1955      C2594   1.489       .  S
C1955      C2840   1.418   1_545  A
C1955      C1960   1.392       .  A
C1956      C2364   1.482       .  S
C1956      C2839   1.418       .  A
C1956      C1957   1.408       .  A
C1957      C1958   1.405       .  A
C1957      H1962   1.083       .  S
C1958      C2427   1.509       .  S
C1958      C2843   1.430       .  A
C1959      C2464   1.480       .  S
C1959      C2842   1.430   1_545  A
C1959      C1960   1.397       .  A
C1960      H1961   1.086       .  S
C1963      C2617   1.492       .  S
C1963      C1968   1.406       .  A
C1964      C2354   1.499       .  S
C1964      C1965   1.403       .  A
C1965      C1966   1.398       .  A
C1965      H1970   1.085       .  S
C1966      C2454   1.497       .  S
C1967      C2497   1.493       .  S
C1967      C1968   1.404       .  A
C1968      H1969   1.085       .  S
O1971     Ni1977   1.927       .  S
O1971      C1992   1.272       .  A
O1972     Ni1995   1.936       .  S
O1972      C1981   1.277       .  A
O1973     Ni1977   1.903       .  S
O1973     Ni1995   1.920       .  S
O1973     Ni1989   1.911       .  S
O1973      H1996   0.968       .  S
C1974      O1991   1.270       .  A
C1974      O1983   1.276       .  A
C1974      C2407   1.470       .  S
O1975     Ni1994   1.915       .  S
O1975      C1981   1.266       .  A
O1976     Ni1994   1.908       .  S
O1976      C1978   1.266       .  A
Ni1977     O1980   1.927       .  S
Ni1977     O1982   1.901       .  S
C1978      O1988   1.278       .  A
C1978      C2324   1.512       .  S
O1979     Ni1995   1.925       .  S
O1979      C1985   1.280       .  A
O1980      C1985   1.273       .  A
C1981      C2377   1.488       .  S
O1982      C1984   1.265       .  A
O1983     Ni1994   1.924       .  S
C1984      O1990   1.278       .  A
C1984      C2397   1.495       .  S
C1985      C2344   1.476       .  S
H1986      O1987   0.965       .  S
O1987     Ni1995   1.917       .  S
O1987     Ni1989   1.908       .  S
O1987     Ni1994   1.903       .  S
O1988     Ni1989   1.950       .  S
Ni1989     O1993   1.904       .  S
Ni1989     O1991   1.913       .  S
O1990     Ni1995   1.961       .  S
C1992      O1993   1.266       .  A
C1992      C2334   1.485       .  S
O1997     Ni2003   1.911       .  S
O1997      C2018   1.265       .  A
O1998     Ni2021   1.905       .  S
O1998      C2007   1.268       .  A
O1999     Ni2003   1.887       .  S
O1999     Ni2021   1.889   1_554  S
O1999     Ni2015   1.922   1_554  S
O1999      H2022   0.966       .  S
C2000      O2017   1.283       .  A
C2000      O2009   1.275       .  A
C2000      C2357   1.491       .  S
O2001     Ni2020   1.920       .  S
O2001      C2007   1.272       .  A
O2002     Ni2020   1.899   1_554  S
O2002      C2004   1.261       .  A
Ni2003     O2006   1.925       .  S
Ni2003     O2008   1.908       .  S
C2004      O2014   1.284       .  A
C2004      C2304   1.512       .  S
O2005     Ni2021   1.931   1_554  S
O2005      C2011   1.278       .  A
O2006      C2011   1.280       .  A
C2007      C2367   1.475       .  S
O2008      C2010   1.265   1_554  A
O2009     Ni2020   1.934       .  S
C2010      O2016   1.280       .  A
C2010      C2387   1.501       .  S
C2011      C2314   1.483       .  S
H2012      O2013   0.965       .  S
O2013     Ni2021   1.921       .  S
O2013     Ni2015   1.919       .  S
O2013     Ni2020   1.892       .  S
O2014     Ni2015   1.987   1_554  S
Ni2015     O2019   1.948   1_556  S
Ni2015     O2017   1.932       .  S
O2016     Ni2021   1.956       .  S
C2018      O2019   1.283       .  A
C2018      C2297   1.488       .  S
N2023      C2027   1.353       .  A
N2023      H2055   1.043       .  S
N2024      C2031   1.346       .  A
N2024      C2032   1.345       .  A
N2025      C2029   1.356       .  A
N2025      H2056   1.038       .  S
N2026      C2033   1.360       .  A
N2026      C2034   1.356       .  A
C2027      C2035   1.380       .  A
C2027      C2043   1.409       .  A
C2028      C2044   1.419       .  A
C2028      C2036   1.389       .  A
C2029      C2037   1.383       .  A
C2029      C2046   1.419       .  A
C2030      C2045   1.424       .  A
C2030      C2038   1.391       .  A
C2031      C2043   1.402       .  A
C2031      C2039   1.383       .  A
C2032      C2046   1.408       .  A
C2032      C2040   1.388       .  A
C2033      C2041   1.379       .  A
C2033      C2044   1.422       .  A
C2034      C2042   1.390       .  A
C2034      C2045   1.434       .  A
C2035      H2047   1.082       .  S
C2036      H2048   1.071       .  S
C2037      H2049   1.082       .  S
C2038      H2050   1.077       .  S
C2039      C2040   1.374       .  A
C2039      H2051   1.081       .  S
C2040      H2052   1.081       .  S
C2041      C2042   1.366       .  A
C2041      H2053   1.080       .  S
C2042      H2054   1.078       .  S
C2043      C2264   1.487       .  S
C2044      C2284   1.532       .  S
C2045      C2277   1.505       .  S
C2046      C2257   1.491       .  S
N2057      C2062   1.347       .  A
N2057      C2061   1.355       .  A
N2057      H2089   1.040       .  S
N2058      C2065   1.347       .  A
N2058      C2066   1.347       .  A
N2059      C2064   1.350       .  A
N2059      C2063   1.353       .  A
N2059      H2090   1.040       .  S
N2060      C2067   1.354       .  A
N2060      C2068   1.353       .  A
C2061      C2069   1.388       .  A
C2061      C2077   1.420       .  A
C2062      C2078   1.411       .  A
C2062      C2070   1.386       .  A
C2063      C2071   1.385       .  A
C2063      C2080   1.416       .  A
C2064      C2079   1.411       .  A
C2064      C2072   1.387       .  A
C2065      C2077   1.412       .  A
C2065      C2073   1.387       .  A
C2066      C2080   1.408       .  A
C2066      C2074   1.384       .  A
C2067      C2075   1.385       .  A
C2067      C2078   1.413       .  A
C2068      C2076   1.388       .  A
C2068      C2079   1.420       .  A
C2069      C2070   1.383       .  A
C2069      H2081   1.082       .  S
C2070      H2082   1.082       .  S
C2071      C2072   1.372       .  A
C2071      H2083   1.082       .  S
C2072      H2084   1.074       .  S
C2073      C2074   1.378       .  A
C2073      H2085   1.082       .  S
C2074      H2086   1.079       .  S
C2075      C2076   1.369       .  A
C2075      H2087   1.081       .  S
C2076      H2088   1.082       .  S
C2077      C2237   1.502       .  S
C2078      C2214   1.494       .  S
C2079      C2224   1.498       .  S
C2080      C2244   1.496       .  S
C2091      C2547   1.497       .  S
C2091      C2976   1.428   1_545  A
C2091      C2096   1.409       .  A
C2092      C2347   1.496       .  S
C2092      C2975   1.428       .  A
C2092      C2093   1.409       .  A
C2093      C2094   1.398       .  A
C2093      H2098   1.085       .  S
C2094      C2234   1.489       .  S
C2094      C2979   1.414       .  A
C2095      C2254   1.488       .  S
C2095      C2978   1.414   1_545  A
C2095      C2096   1.401       .  A
C2096      H2097   1.085       .  S
N2099      C2988   1.354       .  A
N2099      C2103   1.361       .  A
N2099      H2131   1.039       .  S
N2100      C2107   1.360       .  A
N2100      C2108   1.353       .  A
N2101      C2990   1.359       .  A
N2101      C2105   1.356       .  A
N2101      H2132   1.037       .  S
N2102      C2109   1.356       .  A
N2102      C2110   1.361       .  A
C2103      C2111   1.387       .  A
C2103      C2119   1.428       .  A
C2104      N2983   1.354   1_545  A
C2104      C2120   1.421       .  A
C2104      C2112   1.387       .  A
C2105      C2113   1.387       .  A
C2105      C2122   1.422       .  A
C2106      N2985   1.359       .  A
C2106      C2121   1.428       .  A
C2106      C2114   1.388       .  A
C2107      C2119   1.425       .  A
C2107      C2115   1.385       .  A
C2108      C2122   1.423       .  A
C2108      C2116   1.382       .  A
C2109      C2117   1.388       .  A
C2109      C2120   1.432       .  A
C2110      C2118   1.380       .  A
C2110      C2121   1.422       .  A
C2111      C2996   1.380       .  A
C2111      H2123   1.082       .  S
C2112      C2995   1.380   1_545  A
C2112      H2124   1.082       .  S
C2113      C2998   1.375       .  A
C2113      H2125   1.082       .  S
C2114      C2997   1.375   1_545  A
C2114      H2126   1.081       .  S
C2115      C2116   1.374       .  A
C2115      H2127   1.082       .  S
C2116      H2128   1.075       .  S
C2117      C2118   1.373       .  A
C2117      H2129   1.076       .  S
C2118      H2130   1.081       .  S
C2119      C2174   1.529       .  S
C2120      C2194   1.509       .  S
C2121      C2204   1.527       .  S
C2122      C2187   1.504       .  S
C2133      C2627   1.487       .  S
C2133      C3018   1.426   1_545  A
C2133      C2138   1.407       .  A
C2134      C2317   1.497       .  S
C2134      C3017   1.426       .  A
C2134      C2135   1.406       .  A
C2135      C2136   1.402       .  A
C2135      H2140   1.085       .  S
C2136      C2247   1.481       .  S
C2136      C3021   1.414       .  A
C2137      C2267   1.491       .  S
C2137      C3020   1.414   1_545  A
C2137      C2138   1.398       .  A
C2138      H2139   1.085       .  S
C2141      C2327   1.517       .  S
C2141      C2142   1.431       .  A
C2141      C2146   1.412       .  A
C2142      C2577   1.497       .  S
C2142      C2143   1.400       .  A
C2143      C2144   1.396       .  A
C2143      H2148   1.086       .  S
C2144      C2197   1.502       .  S
C2144      C2145   1.436       .  A
C2145      C2274   1.521       .  S
C2145      C2146   1.414       .  A
C2146      H2147   1.076       .  S
C2149      C2294   1.499       .  S
C2149      C2150   1.436       .  A
C2149      C2154   1.392       .  A
C2150      C2604   1.502       .  S
C2150      C2151   1.428       .  A
C2151      C2152   1.429       .  A
C2151      H2156   1.079       .  S
C2152      C2207   1.558       .  S
C2152      C2153   1.370       .  A
C2153      C2287   1.387       .  S
C2153      C2154   1.380       .  A
C2154      H2155   1.086       .  S
C2157      C2567   1.506       .  S
C2157      C2162   1.403       .  A
C2158      C2337   1.493       .  S
C2158      C2159   1.414       .  A
C2159      C2160   1.408       .  A
C2159      H2164   1.085       .  S
C2160      C2177   1.510       .  S
C2161      C2217   1.494       .  S
C2161      C2162   1.408       .  A
C2162      H2163   1.085       .  S
C2165      C2637   1.502       .  S
C2165      C2170   1.400       .  A
C2166      C2307   1.507       .  S
C2166      C2167   1.414       .  A
C2167      C2168   1.419       .  A
C2167      H2172   1.084       .  S
C2168      C2184   1.512       .  S
C2169      C2227   1.513       .  S
C2169      C2170   1.404       .  A
C2170      H2171   1.084       .  S
C2173      C2174   1.417       .  A
C2173      C2178   1.410       .  A
C2173     Br2180   1.923       .  S
C2174      C2175   1.424       .  A
C2175      C2176   1.424       .  A
C2175     Br2182   1.929       .  S
C2176      C2177   1.412       .  A
C2176     Br2181   1.926       .  S
C2177      C2178   1.409       .  A
C2183      C2184   1.424       .  A
C2183      C2188   1.411       .  A
C2183     Br2190   1.934       .  S
C2184      C2185   1.418       .  A
C2185      C2186   1.417       .  A
C2186      C2187   1.412       .  A
C2187      C2188   1.407       .  A
C2188     Br2189   1.934       .  S
C2193      C2194   1.411       .  A
C2193      C2198   1.412       .  A
C2193     Br2200   1.930       .  S
C2194      C2195   1.419       .  A
C2195      C2196   1.412       .  A
C2195     Br2202   1.928       .  S
C2196      C2197   1.408       .  A
C2196     Br2201   1.930       .  S
C2197      C2198   1.420       .  A
C2198     Br2199   1.935       .  S
C2203      C2204   1.388       .  A
C2203      C2208   1.380       .  A
C2203     Br2210   1.934       .  S
C2204      C2205   1.438       .  A
C2205      C2206   1.511       .  A
C2205     Br2212   1.960       .  S
C2206      C2207   1.536       .  A
C2206     Br2211   3.719       .  S
C2207      C2208   1.411       .  A
C2208     Br2209   1.940       .  S
C2213      C2214   1.409       .  A
C2213      C2218   1.394       .  A
C2213     Br2220   1.927       .  S
C2214      C2215   1.410       .  A
C2215      C2216   1.413       .  A
C2215     Br2222   1.929       .  S
C2216      C2217   1.421       .  A
C2216     Br2221   1.927       .  S
C2217      C2218   1.405       .  A
C2218     Br2219   1.915       .  S
C2223      C2224   1.411       .  A
C2223      C2228   1.402       .  A
C2223     Br2230   1.928       .  S
C2224      C2225   1.405       .  A
C2225      C2226   1.408       .  A
C2225     Br2232   1.927       .  S
C2226      C2227   1.429       .  A
C2226     Br2231   1.933       .  S
C2227      C2228   1.412       .  A
C2233      C2234   1.409       .  A
C2233      C2238   1.406       .  A
C2233     Br2240   1.924       .  S
C2234      C2235   1.409       .  A
C2235      C2236   1.408       .  A
C2235     Br2242   1.929       .  S
C2236      C2237   1.417       .  A
C2236     Br2241   1.925       .  S
C2237      C2238   1.415       .  A
C2238     Br2239   1.935       .  S
C2243      C2244   1.415       .  A
C2243      C2248   1.409       .  A
C2243     Br2250   1.930       .  S
C2244      C2245   1.415       .  A
C2245      C2246   1.400       .  A
C2245     Br2252   1.933       .  S
C2246      C2247   1.404       .  A
C2246     Br2251   1.928       .  S
C2247      C2248   1.410       .  A
C2248     Br2249   1.927       .  S
C2253      C2254   1.413       .  A
C2253      C2258   1.408       .  A
C2253     Br2260   1.930       .  S
C2254      C2255   1.409       .  A
C2255      C2256   1.402       .  A
C2255     Br3146   1.922       .  S
C2256      C2257   1.409       .  A
C2256     Br2261   1.932       .  S
C2257      C2258   1.412       .  A
C2258     Br2259   1.931       .  S
Br2262     C3139   1.922       .  S
C2263      C2264   1.409       .  A
C2263      C2268   1.410       .  A
C2263     Br2270   1.929       .  S
C2264      C2265   1.406       .  A
C2265      C2266   1.401       .  A
C2265     Br2272   1.927       .  S
C2266      C2267   1.408       .  A
C2266     Br2271   1.921       .  S
C2267      C2268   1.414       .  A
C2268     Br2269   1.927       .  S
C2273      C2274   1.433       .  A
C2273      C2278   1.421       .  A
C2273     Br2280   1.930       .  S
C2274      C2275   1.402       .  A
C2275      C2276   1.391       .  A
C2275     Br2282   1.916       .  S
C2276      C2277   1.397       .  A
C2276     Br2281   1.917       .  S
C2277      C2278   1.416       .  A
C2278     Br2279   1.928       .  S
C2283      C2284   1.652       .  A
C2283      C2288   1.606       .  A
C2283     Br2290   1.925       .  S
C2284      C2285   1.629       .  A
C2285      C2286   1.598       .  A
C2285     Br2292   1.931       .  S
C2286      C2287   1.617       .  A
C2286     Br2291   1.924       .  S
C2287      C2288   1.606       .  A
C2288     Br2289   1.919       .  S
C2293      C2294   1.413       .  A
C2293      C2298   1.410       .  A
C2293     Br2300   1.926       .  S
C2294      C2295   1.422       .  A
C2295      C2296   1.414       .  A
C2295     Br2302   1.924       .  S
C2296      C2297   1.406       .  A
C2296     Br2301   1.928   1_554  S
C2297      C2298   1.414       .  A
C2298     Br2299   1.936       .  S
C2303      C2304   1.417       .  A
C2303      C2308   1.422       .  A
C2303     Br2310   1.932       .  S
C2304      C2305   1.427       .  A
C2305      C2306   1.410       .  A
C2305     Br2312   1.939   1_554  S
C2306      C2307   1.408       .  A
C2306     Br2311   1.931       .  S
C2307      C2308   1.418       .  A
C2308     Br2309   1.925       .  S
C2313      C2314   1.406       .  A
C2313      C2318   1.405       .  A
C2313     Br2320   1.929   1_554  S
C2314      C2315   1.408       .  A
C2315      C2316   1.412       .  A
C2315     Br2322   1.930       .  S
C2316      C2317   1.418       .  A
C2316     Br2321   1.926       .  S
C2317      C2318   1.413       .  A
C2318     Br2319   1.919       .  S
C2323      C2324   1.418       .  A
C2323      C2328   1.420       .  A
C2323     Br2330   1.934       .  S
C2324      C2325   1.423       .  A
C2325      C2326   1.413       .  A
C2325     Br2332   1.939       .  S
C2326      C2327   1.413       .  A
C2326     Br2331   1.924       .  S
C2327      C2328   1.423       .  A
C2328     Br2329   1.935       .  S
C2333      C2334   1.411       .  A
C2333      C2338   1.404       .  A
C2333     Br2340   1.936       .  S
C2334      C2335   1.411       .  A
C2335      C2336   1.414       .  A
C2335     Br2342   1.933       .  S
C2336      C2337   1.416       .  A
C2336     Br2341   1.927       .  S
C2337      C2338   1.412       .  A
C2343      C2344   1.408       .  A
C2343      C2348   1.401       .  A
C2343     Br2350   1.940       .  S
C2344      C2345   1.408       .  A
C2345      C2346   1.416       .  A
C2345     Br2352   1.927       .  S
C2346      C2347   1.416       .  A
C2346     Br3235   1.921       .  S
C2347      C2348   1.417       .  A
C2348     Br2349   1.932       .  S
Br2351     C3230   1.921       .  S
C2353      C2354   1.415       .  A
C2353      C2358   1.409       .  A
C2353     Br2360   1.933       .  S
C2354      C2355   1.419       .  A
C2355      C2356   1.413       .  A
C2355     Br2362   1.916       .  S
C2356      C2357   1.407       .  A
C2356     Br2361   1.929       .  S
C2357      C2358   1.417       .  A
C2358     Br2359   1.937       .  S
C2363      C2364   1.416       .  A
C2363      C2368   1.413       .  A
C2363     Br2370   1.928       .  S
C2364      C2365   1.409       .  A
C2365      C2366   1.398       .  A
C2365     Br2372   1.924       .  S
C2366      C2367   1.407       .  A
C2366     Br2371   1.934       .  S
C2367      C2368   1.408       .  A
C2368     Br2369   1.929       .  S
C2373      C2374   1.412       .  A
C2373      C2378   1.411       .  A
C2373     Br2380   1.930       .  S
C2374      C2375   1.417       .  A
C2375      C2376   1.410       .  A
C2375     Br2382   1.923       .  S
C2376      C2377   1.407       .  A
C2376     Br2381   1.929       .  S
C2377      C2378   1.416       .  A
C2378     Br2379   1.934       .  S
C2383      C2384   1.411       .  A
C2383      C2388   1.410       .  A
C2383     Br2390   1.926       .  S
C2384      C2385   1.416       .  A
C2385      C2386   1.417       .  A
C2385     Br2392   1.925       .  S
C2386      C2387   1.413       .  A
C2386     Br2391   1.931       .  S
C2387      C2388   1.418       .  A
C2388     Br2389   1.930   1_556  S
C2393      C2394   1.424       .  A
C2393      C2398   1.412       .  A
C2393     Br2400   1.937       .  S
C2394      C2395   1.407       .  A
C2395      C2396   1.409       .  A
C2395     Br2402   1.927       .  S
C2396      C2397   1.421       .  A
C2396     Br2401   1.935       .  S
C2397      C2398   1.411       .  A
C2398     Br2399   1.934       .  S
C2403      C2404   1.418       .  A
C2403      C2408   1.402       .  A
C2403     Br2410   1.925       .  S
C2404      C2405   1.416       .  A
C2405      C2406   1.410       .  A
C2405     Br2412   1.926       .  S
C2406      C2407   1.405       .  A
C2406     Br2411   1.929       .  S
C2407      C2408   1.399       .  A
C2408     Br2409   1.930       .  S
C2413      C2414   1.416       .  A
C2413      C2418   1.412       .  A
C2413     Br2420   1.932       .  S
C2414      C2415   1.413       .  A
C2415      C2416   1.401       .  A
C2415     Br2422   1.908       .  S
C2416      C2417   1.405       .  A
C2416     Br2421   1.927       .  S
C2417      C2418   1.421       .  A
C2418     Br2419   1.934       .  S
C2423      C2424   1.434       .  A
C2423      C2428   1.439       .  A
C2423     Br2430   1.924       .  S
C2424      C2425   1.387       .  A
C2425      C2426   1.388       .  A
C2425     Br3316   1.913       .  S
C2426      C2427   1.385       .  A
C2426     Br3315   1.931       .  S
C2427      C2428   1.434       .  A
C2428     Br2429   1.925       .  S
Br2431     C3310   1.931       .  S
Br2432     C3309   1.913   1_545  S
C2433      C2434   1.420       .  A
C2433      C2438   1.413       .  A
C2433     Br2440   1.931       .  S
C2434      C2435   1.415       .  A
C2435      C2436   1.397       .  A
C2435     Br2442   1.927       .  S
C2436      C2437   1.405       .  A
C2436     Br2441   1.936       .  S
C2437      C2438   1.408       .  A
C2438     Br2439   1.927       .  S
C2443      C2444   1.406       .  A
C2443      C2448   1.412       .  A
C2443     Br2450   1.931       .  S
C2444      C2445   1.416       .  A
C2445      C2446   1.409       .  A
C2445     Br2452   1.929       .  S
C2446      C2447   1.410       .  A
C2446     Br2451   1.930       .  S
C2447      C2448   1.424       .  A
C2448     Br2449   1.929       .  S
C2453      C2454   1.409       .  A
C2453      C2458   1.408       .  A
C2454      C2455   1.417       .  A
C2455      C2456   1.406       .  A
C2455     Br2462   1.936       .  S
C2456      C2457   1.411       .  A
C2456     Br2461   1.928       .  S
C2457      C2458   1.418       .  A
C2458     Br2459   1.916       .  S
C2463      C2464   1.403       .  A
C2463      C2468   1.393       .  A
C2463     Br3354   1.925       .  S
C2464      C2465   1.408       .  A
C2465      C2466   1.408       .  A
C2465     Br2472   1.929       .  S
C2466      C2467   1.421       .  A
C2466     Br2471   1.926       .  S
C2467      C2468   1.417       .  A
C2468     Br2469   1.934       .  S
Br2470     C3347   1.925       .  S
C2473      C2474   1.411       .  A
C2473      C2478   1.416       .  A
C2473     Br2480   1.927       .  S
C2474      C2475   1.409       .  A
C2475      C2476   1.398       .  A
C2475     Br2482   1.932       .  S
C2476      C2477   1.410       .  A
C2476     Br3365   1.915       .  S
C2477      C2478   1.423       .  A
C2478     Br2479   1.931       .  S
Br2481     C3360   1.915       .  S
C2483      C2484   1.405       .  A
C2483      C2488   1.393       .  A
C2483     Br2490   1.923       .  S
C2484      C2485   1.427       .  A
C2485      C2486   1.405       .  A
C2485     Br2492   1.932       .  S
C2486      C2487   1.404       .  A
C2486     Br2491   1.931       .  S
C2487      C2488   1.408       .  A
C2488     Br2489   1.920       .  S
C2493      C2494   1.408       .  A
C2493      C2498   1.408       .  A
C2493     Br2500   1.932       .  S
C2494      C2495   1.408       .  A
C2495      C2496   1.404       .  A
C2495     Br2502   1.930       .  S
C2496      C2497   1.411       .  A
C2496     Br2501   1.927   1_655  S
C2497      C2498   1.419       .  A
C2498     Br2499   1.934       .  S
C2503      C2504   1.414       .  A
C2503      C2508   1.409       .  A
C2503     Br2510   1.931       .  S
C2504      C2505   1.411       .  A
C2505      C2506   1.414       .  A
C2505     Br2512   1.930       .  S
C2506      C2507   1.422       .  A
C2506     Br2511   1.932       .  S
C2507      C2508   1.412       .  A
C2508     Br2509   1.927       .  S
C2513      C2514   1.408       .  A
C2513      C2518   1.406       .  A
C2513     Br2520   1.935       .  S
C2514      C2515   1.412       .  A
C2515      C2516   1.414   1_655  A
C2515     Br2522   1.929   1_655  S
C2516      C2517   1.417   1_455  A
C2516     Br2521   1.927       .  S
C2517      C2518   1.422       .  A
C2518     Br2519   1.935       .  S
C2523      C2524   1.409       .  A
C2523      C2528   1.401       .  A
C2523     Br2530   1.924       .  S
C2524      C2525   1.426       .  A
C2525      C2526   1.409       .  A
C2525     Br2532   1.930       .  S
C2526      C2527   1.409       .  A
C2526     Br2531   1.932       .  S
C2527      C2528   1.409       .  A
C2528     Br2529   1.914       .  S
C2533      C2534   1.406       .  A
C2533      C2538   1.395       .  A
C2533     Br2540   1.920       .  S
C2534      C2535   1.419       .  A
C2535      C2536   1.413       .  A
C2535     Br2542   1.928       .  S
C2536      C2537   1.409       .  A
C2536     Br2541   1.930       .  S
C2537      C2538   1.401       .  A
C2538     Br2539   1.920       .  S
C2543      C2544   1.417       .  A
C2543      C2548   1.416       .  A
C2543     Br2550   1.933       .  S
C2544      C2545   1.413       .  A
C2545      C2546   1.406       .  A
C2545     Br2552   1.921       .  S
C2546      C2547   1.415       .  A
C2546     Br2551   1.940       .  S
C2547      C2548   1.413       .  A
C2548     Br2549   1.921       .  S
C2553      C2554   1.415       .  A
C2553      C2558   1.408       .  A
C2553     Br2560   1.936       .  S
C2554      C2555   1.406       .  A
C2555      C2556   1.410       .  A
C2555     Br2562   1.929       .  S
C2556      C2557   1.425       .  A
C2556     Br3445   1.936       .  S
C2557      C2558   1.415       .  A
C2558     Br2559   1.922       .  S
Br2561     C3440   1.936       .  S
C2563      C2564   1.407       .  A
C2563      C2568   1.416       .  A
C2563     Br2570   1.930       .  S
C2564      C2565   1.404       .  A
C2565      C2566   1.410       .  A
C2565     Br2572   1.923       .  S
C2566      C2567   1.417       .  A
C2566     Br2571   1.921       .  S
C2567      C2568   1.420       .  A
C2568     Br2569   1.922       .  S
C2573      C2574   1.411       .  A
C2573      C2578   1.413       .  A
C2573     Br2580   1.928       .  S
C2574      C2575   1.414       .  A
C2575      C2576   1.407       .  A
C2575     Br2582   1.939       .  S
C2576      C2577   1.412       .  A
C2576     Br2581   1.926       .  S
C2577      C2578   1.423       .  A
C2578     Br2579   1.936       .  S
C2583      C2584   1.416       .  A
C2583      C2588   1.415       .  A
C2583     Br2590   1.926       .  S
C2584      C2585   1.409       .  A
C2585      C2586   1.407       .  A
C2585     Br2592   1.923       .  S
C2586      C2587   1.416       .  A
C2586     Br2591   1.933       .  S
C2587      C2588   1.413       .  A
C2588     Br2589   1.932       .  S
C2593      C2594   1.416       .  A
C2593      C2598   1.413       .  A
C2593     Br2600   1.929       .  S
C2594      C2595   1.411       .  A
C2595      C2596   1.401       .  A
C2595     Br2602   1.923       .  S
C2596      C2597   1.403       .  A
C2596     Br2601   1.924   1_556  S
C2597      C2598   1.410       .  A
C2598     Br2599   1.930       .  S
C2603      C2604   1.417       .  A
C2603      C2608   1.423       .  A
C2603     Br2610   1.927       .  S
C2604      C2605   1.404       .  A
C2605      C2606   1.403       .  A
C2605     Br2612   1.928       .  S
C2606      C2607   1.415       .  A
C2606     Br2611   1.928       .  S
C2607      C2608   1.418       .  A
C2608     Br2609   1.929       .  S
C2613      C2614   1.429       .  A
C2613      C2618   1.406       .  A
C2613     Br2620   1.938       .  S
C2614      C2615   1.421       .  A
C2615      C2616   1.416       .  A
C2615     Br2622   1.934       .  S
C2616      C2617   1.412       .  A
C2616     Br2621   1.928       .  S
C2617      C2618   1.407       .  A
C2618     Br2619   1.936       .  S
C2623      C2624   1.408       .  A
C2623      C2628   1.412       .  A
C2623     Br2630   1.931       .  S
C2624      C2625   1.411       .  A
C2625      C2626   1.402       .  A
C2625     Br2632   1.934       .  S
C2626      C2627   1.412       .  A
C2626     Br2631   1.929       .  S
C2627      C2628   1.417       .  A
C2628     Br2629   1.924       .  S
C2633      C2634   1.417       .  A
C2633      C2638   1.411       .  A
C2633     Br2640   1.938       .  S
C2634      C2635   1.406       .  A
C2635      C2636   1.412       .  A
C2635     Br2642   1.929   1_554  S
C2636      C2637   1.420       .  A
C2637      C2638   1.416       .  A
C2638     Br2639   1.930       .  S
C2643      C2644   1.405       .  A
C2643      C2648   1.411       .  A
C2643     Br2650   1.926       .  S
C2644      C2645   1.414       .  A
C2645      C2646   1.412       .  A
C2645     Br2652   1.934       .  S
C2646      C2647   1.415       .  A
C2646     Br2651   1.930       .  S
C2647      C2648   1.418       .  A
C2648     Br2649   1.921       .  S
O2653     Ni2659   1.917       .  S
O2653      C2674   1.270       .  A
O2654     Ni2677   1.945   1_556  S
O2654      C2663   1.280       .  A
O2655     Ni2659   1.903       .  S
O2655     Ni2677   1.924       .  S
O2655     Ni2671   1.926       .  S
O2655      H2678   0.975       .  S
C2656      O2673   1.276       .  A
C2656      O2665   1.277       .  A
C2656      C3481   1.479       .  S
O2657     Ni2676   1.908       .  S
O2657      C2663   1.264       .  A
O2658     Ni2676   1.908       .  S
O2658      C2660   1.267   1_556  A
Ni2659     O2662   1.932       .  S
Ni2659     O2664   1.897   1_554  S
C2660      O2670   1.279       .  A
C2660      C3491   1.501       .  S
O2661     Ni2677   1.930       .  S
O2661      C2667   1.281       .  A
O2662      C2667   1.272       .  A
C2663      C3528   1.487       .  S
O2664      C2666   1.261       .  A
O2665     Ni2676   1.923       .  S
C2666      O2672   1.280       .  A
C2666      C3498   1.508       .  S
C2667      C3518   1.491       .  S
H2668      O2669   0.968       .  S
O2669     Ni2677   1.920   1_556  S
O2669     Ni2671   1.900   1_556  S
O2669     Ni2676   1.899       .  S
O2670     Ni2671   1.957       .  S
Ni2671     O2675   1.909       .  S
Ni2671     O2673   1.930   1_554  S
O2672     Ni2677   1.971   1_556  S
C2674      O2675   1.269       .  A
C2674      C3508   1.482       .  S
O2679     Ni2685   1.923       .  S
O2679      C2700   1.269       .  A
O2680     Ni2703   1.907       .  S
O2680      C2689   1.266       .  A
O2681     Ni2685   1.888       .  S
O2681     Ni2703   1.895       .  S
O2681     Ni2697   1.922       .  S
O2681      H2704   0.966       .  S
C2682      O2699   1.283       .  A
C2682      O2691   1.276       .  A
C2682      C3438   1.488       .  S
O2683     Ni2702   1.930       .  S
O2683      C2689   1.274       .  A
O2684     Ni2702   1.908       .  S
O2684      C2686   1.270       .  A
Ni2685     O2688   1.935       .  S
Ni2685     O2690   1.903       .  S
C2686      O2696   1.276       .  A
C2686      C3428   1.497       .  S
O2687     Ni2703   1.940       .  S
O2687      C2693   1.280       .  A
O2688      C2693   1.281       .  A
C2689      C3421   1.475       .  S
O2690      C2692   1.265       .  A
O2691     Ni2702   1.913       .  S
C2692      O2698   1.275       .  A
C2692      C3471   1.495       .  S
C2693      C3448   1.490       .  S
H2694      O2695   0.964       .  S
O2695     Ni2703   1.918       .  S
O2695     Ni2697   1.907       .  S
O2695     Ni2702   1.894       .  S
O2696     Ni2697   1.942       .  S
Ni2697     O2701   1.929       .  S
Ni2697     O2699   1.940       .  S
O2698     Ni2703   1.941       .  S
C2700      O2701   1.276       .  A
C2700      C3458   1.491       .  S
N2705      C2710   1.358       .  A
N2705      H2737   1.038       .  S
N2706      C2713   1.351       .  A
N2706      C2714   1.354       .  A
N2707      C2712   1.352       .  A
N2707      H2738   1.030       .  S
N2708      C2715   1.352       .  A
N2708      C2716   1.353       .  A
C2709      C2717   1.389       .  A
C2709      C2725   1.425       .  A
C2710      C2726   1.420       .  A
C2710      C2718   1.385       .  A
C2711      C2719   1.387       .  A
C2711      C2728   1.421       .  A
C2712      C2727   1.421       .  A
C2712      C2720   1.389       .  A
C2713      C2725   1.422       .  A
C2713      C2721   1.387       .  A
C2714      C2728   1.423       .  A
C2714      C2722   1.386       .  A
C2715      C2723   1.386       .  A
C2715      C2726   1.419       .  A
C2716      C2724   1.385       .  A
C2716      C2727   1.419       .  A
C2717      H2729   1.082       .  S
C2718      H2730   1.081       .  S
C2719      H2731   1.082       .  S
C2720      H2732   1.082       .  S
C2721      C2722   1.373       .  A
C2721      H2733   1.082       .  S
C2722      H2734   1.081       .  S
C2723      C2724   1.370       .  A
C2723      H2735   1.080       .  S
C2724      H2736   1.081       .  S
C2725      C3411   1.502       .  S
C2726      C3398   1.500       .  S
C2727      C3378   1.490       .  S
C2728      C3388   1.506       .  S
N2739      C2744   1.352       .  A
N2739      C2743   1.355       .  A
N2739      H2771   1.043       .  S
N2740      C2747   1.348       .  A
N2740      C2748   1.348       .  A
N2741      C2746   1.352       .  A
N2741      C2745   1.348       .  A
N2741      H2772   1.044       .  S
N2742      C2749   1.342       .  A
N2742      C2750   1.350       .  A
C2743      C2751   1.388       .  A
C2743      C2759   1.421       .  A
C2744      C2760   1.416       .  A
C2744      C2752   1.388       .  A
C2745      C2753   1.389       .  A
C2745      C2762   1.416       .  A
C2746      C2761   1.416       .  A
C2746      C2754   1.386       .  A
C2747      C2759   1.407       .  A
C2747      C2755   1.384       .  A
C2748      C2762   1.416       .  A
C2748      C2756   1.388       .  A
C2749      C2757   1.388       .  A
C2749      C2760   1.408       .  A
C2750      C2758   1.384       .  A
C2750      C2761   1.411       .  A
C2751      C2752   1.373       .  A
C2751      H2763   1.081       .  S
C2752      H2764   1.082       .  S
C2753      C2754   1.383       .  A
C2753      H2765   1.082       .  S
C2754      H2766   1.082       .  S
C2755      C2756   1.378       .  A
C2755      H2767   1.079       .  S
C2756      H2768   1.082       .  S
C2757      C2758   1.382       .  A
C2757      H2769   1.082       .  S
C2758      H2770   1.082       .  S
C2759      C3358   1.498       .  S
C2760      C3371   1.485       .  S
C2761      C3341   1.505       .  S
C2762      C3351   1.500       .  S
N2773      C2778   1.358       .  A
N2773      H2805   1.041       .  S
N2774      C2781   1.353       .  A
N2774      C2782   1.354       .  A
N2775      C2780   1.352       .  A
N2775      H2806   1.039       .  S
N2776      C2783   1.357       .  A
N2776      C2784   1.359       .  A
C2777      C2785   1.387       .  A
C2777      C2793   1.422       .  A
C2778      C2794   1.418       .  A
C2778      C2786   1.386       .  A
C2779      C2787   1.384   1_655  A
C2779      C2796   1.409       .  A
C2780      C2795   1.415       .  A
C2780      C2788   1.389       .  A
C2781      C2793   1.423       .  A
C2781      C2789   1.387       .  A
C2782      C2796   1.420       .  A
C2782      C2790   1.385       .  A
C2783      C2791   1.394       .  A
C2783      C2794   1.440       .  A
C2784      C2792   1.375       .  A
C2784      C2795   1.418       .  A
C2785      H2797   1.081       .  S
C2786      H2798   1.082       .  S
C2787      H2799   1.082   1_455  S
C2788      H2800   1.082       .  S
C2789      C2790   1.375       .  A
C2789      H2801   1.082       .  S
C2790      H2802   1.080       .  S
C2791      C2792   1.357       .  A
C2791      H2803   1.067       .  S
C2792      H2804   1.081       .  S
C2793      C3298   1.511       .  S
C2794      C3308   1.519       .  S
C2795      C3318   1.508       .  S
C2796      C3328   1.501       .  S
C2807      C3418   1.484       .  S
C2807      C2812   1.403       .  A
C2808      C3288   1.487       .  S
C2808      C2809   1.392       .  A
C2809      C2810   1.399       .  A
C2809      H2814   1.085       .  S
C2810      C3368   1.491       .  S
C2811      C3401   1.507       .  S
C2811      C2812   1.410       .  A
C2812      H2813   1.084       .  S
C2815      C3441   1.507       .  S
C2815      C2820   1.413       .  A
C2816      C3278   1.500       .  S
C2816      C2817   1.404       .  A
C2817      C2818   1.399       .  A
C2817      H2822   1.086       .  S
C2818      C3321   1.480       .  S
C2819      C3361   1.506       .  S
C2819      C2820   1.402       .  A
C2820      H2821   1.084       .  S
C2823      C3531   1.500       .  S
C2823      C2824   1.428       .  A
C2823      C2828   1.403       .  A
C2824      C3268   1.502       .  S
C2824      C2825   1.410       .  A
C2825      C2826   1.410       .  A
C2825      H2830   1.084       .  S
C2826      C3391   1.509       .  S
C2826      C2827   1.430       .  A
C2827      C3301   1.502       .  S
C2827      C2828   1.403       .  A
C2828      H2829   1.084       .  S
C2831      C3468   1.496       .  S
C2831      C2832   1.423       .  A
C2831      C2836   1.408       .  A
C2832      C3258   1.495       .  S
C2832      C2833   1.400       .  A
C2833      C2834   1.404       .  A
C2833      H2838   1.084       .  S
C2834      C3408   1.506       .  S
C2834      C2835   1.433       .  A
C2835      C3331   1.506       .  S
C2835      C2836   1.409       .  A
C2836      H2837   1.084       .  S
C2839      C3478   1.489       .  S
C2839      C2844   1.392       .  A
C2840      C3248   1.482       .  S
C2840      C2841   1.408       .  A
C2841      C2842   1.405       .  A
C2841      H2846   1.083       .  S
C2842      C3311   1.509       .  S
C2843      C3348   1.480       .  S
C2843      C2844   1.397       .  A
C2844      H2845   1.086       .  S
C2847      C3501   1.492       .  S
C2847      C2852   1.406       .  A
C2848      C3238   1.499       .  S
C2848      C2849   1.403       .  A
C2849      C2850   1.398       .  A
C2849      H2854   1.085       .  S
C2850      C3338   1.497       .  S
C2851      C3381   1.493       .  S
C2851      C2852   1.404       .  A
C2852      H2853   1.085       .  S
O2855     Ni2861   1.927       .  S
O2855      C2876   1.272       .  A
O2856     Ni2879   1.936       .  S
O2856      C2865   1.277       .  A
O2857     Ni2861   1.903       .  S
O2857     Ni2879   1.920       .  S
O2857     Ni2873   1.911       .  S
O2857      H2880   0.968       .  S
C2858      O2875   1.270       .  A
C2858      O2867   1.276       .  A
C2858      C3291   1.470       .  S
O2859     Ni2878   1.915       .  S
O2859      C2865   1.266       .  A
O2860     Ni2878   1.908       .  S
O2860      C2862   1.266       .  A
Ni2861     O2864   1.927       .  S
Ni2861     O2866   1.901       .  S
C2862      O2872   1.278       .  A
C2862      C3208   1.512       .  S
O2863     Ni2879   1.925       .  S
O2863      C2869   1.280       .  A
O2864      C2869   1.273       .  A
C2865      C3261   1.488       .  S
O2866      C2868   1.265       .  A
O2867     Ni2878   1.924       .  S
C2868      O2874   1.278       .  A
C2868      C3281   1.495       .  S
C2869      C3228   1.476       .  S
H2870      O2871   0.965       .  S
O2871     Ni2879   1.917       .  S
O2871     Ni2873   1.908       .  S
O2871     Ni2878   1.903       .  S
O2872     Ni2873   1.950       .  S
Ni2873     O2877   1.904       .  S
Ni2873     O2875   1.913       .  S
O2874     Ni2879   1.961       .  S
C2876      O2877   1.266       .  A
C2876      C3218   1.485       .  S
O2881     Ni2887   1.911       .  S
O2881      C2902   1.265       .  A
O2882     Ni2905   1.905       .  S
O2882      C2891   1.268       .  A
O2883     Ni2887   1.887       .  S
O2883     Ni2905   1.889   1_554  S
O2883     Ni2899   1.922   1_554  S
O2883      H2906   0.966       .  S
C2884      O2901   1.283       .  A
C2884      O2893   1.275       .  A
C2884      C3241   1.491       .  S
O2885     Ni2904   1.920       .  S
O2885      C2891   1.272       .  A
O2886     Ni2904   1.899   1_554  S
O2886      C2888   1.261       .  A
Ni2887     O2890   1.925       .  S
Ni2887     O2892   1.908       .  S
C2888      O2898   1.284       .  A
C2888      C3188   1.512       .  S
O2889     Ni2905   1.931   1_554  S
O2889      C2895   1.278       .  A
O2890      C2895   1.280       .  A
C2891      C3251   1.475       .  S
O2892      C2894   1.265   1_554  A
O2893     Ni2904   1.934       .  S
C2894      O2900   1.280       .  A
C2894      C3271   1.501       .  S
C2895      C3198   1.483       .  S
H2896      O2897   0.965       .  S
O2897     Ni2905   1.921       .  S
O2897     Ni2899   1.919       .  S
O2897     Ni2904   1.892       .  S
O2898     Ni2899   1.987   1_554  S
Ni2899     O2903   1.948   1_556  S
Ni2899     O2901   1.932       .  S
O2900     Ni2905   1.956       .  S
C2902      O2903   1.283       .  A
C2902      C3181   1.488       .  S
N2907      C2911   1.353       .  A
N2907      H2939   1.043       .  S
N2908      C2915   1.346       .  A
N2908      C2916   1.345       .  A
N2909      C2913   1.356       .  A
N2909      H2940   1.038       .  S
N2910      C2917   1.360       .  A
N2910      C2918   1.356       .  A
C2911      C2919   1.380       .  A
C2911      C2927   1.409       .  A
C2912      C2928   1.419       .  A
C2912      C2920   1.389       .  A
C2913      C2921   1.383       .  A
C2913      C2930   1.419       .  A
C2914      C2929   1.424       .  A
C2914      C2922   1.391       .  A
C2915      C2927   1.402       .  A
C2915      C2923   1.383       .  A
C2916      C2930   1.408       .  A
C2916      C2924   1.388       .  A
C2917      C2925   1.379       .  A
C2917      C2928   1.422       .  A
C2918      C2926   1.390       .  A
C2918      C2929   1.434       .  A
C2919      H2931   1.082       .  S
C2920      H2932   1.071       .  S
C2921      H2933   1.082       .  S
C2922      H2934   1.077       .  S
C2923      C2924   1.374       .  A
C2923      H2935   1.081       .  S
C2924      H2936   1.081       .  S
C2925      C2926   1.366       .  A
C2925      H2937   1.080       .  S
C2926      H2938   1.078       .  S
C2927      C3148   1.487       .  S
C2928      C3168   1.532       .  S
C2929      C3161   1.505       .  S
C2930      C3141   1.491       .  S
N2941      C2946   1.347       .  A
N2941      C2945   1.355       .  A
N2941      H2973   1.040       .  S
N2942      C2949   1.347       .  A
N2942      C2950   1.347       .  A
N2943      C2948   1.350       .  A
N2943      C2947   1.353       .  A
N2943      H2974   1.040       .  S
N2944      C2951   1.354       .  A
N2944      C2952   1.353       .  A
C2945      C2953   1.388       .  A
C2945      C2961   1.420       .  A
C2946      C2962   1.411       .  A
C2946      C2954   1.386       .  A
C2947      C2955   1.385       .  A
C2947      C2964   1.416       .  A
C2948      C2963   1.411       .  A
C2948      C2956   1.387       .  A
C2949      C2961   1.412       .  A
C2949      C2957   1.387       .  A
C2950      C2964   1.408       .  A
C2950      C2958   1.384       .  A
C2951      C2959   1.385       .  A
C2951      C2962   1.413       .  A
C2952      C2960   1.388       .  A
C2952      C2963   1.420       .  A
C2953      C2954   1.383       .  A
C2953      H2965   1.082       .  S
C2954      H2966   1.082       .  S
C2955      C2956   1.372       .  A
C2955      H2967   1.082       .  S
C2956      H2968   1.074       .  S
C2957      C2958   1.378       .  A
C2957      H2969   1.082       .  S
C2958      H2970   1.079       .  S
C2959      C2960   1.369       .  A
C2959      H2971   1.081       .  S
C2960      H2972   1.082       .  S
C2961      C3121   1.502       .  S
C2962      C3098   1.494       .  S
C2963      C3108   1.498       .  S
C2964      C3128   1.496       .  S
C2975      C3431   1.497       .  S
C2975      C2980   1.409       .  A
C2976      C3231   1.496       .  S
C2976      C2977   1.409       .  A
C2977      C2978   1.398       .  A
C2977      H2982   1.085       .  S
C2978      C3118   1.489       .  S
C2979      C3138   1.488       .  S
C2979      C2980   1.401       .  A
C2980      H2981   1.085       .  S
N2983      C2987   1.361       .  A
N2983      H3015   1.039       .  S
N2984      C2991   1.360       .  A
N2984      C2992   1.353       .  A
N2985      C2989   1.356   1_545  A
N2985      H3016   1.037       .  S
N2986      C2993   1.356       .  A
N2986      C2994   1.361       .  A
C2987      C2995   1.387       .  A
C2987      C3003   1.428       .  A
C2988      C3004   1.421       .  A
C2988      C2996   1.387       .  A
C2989      C2997   1.387       .  A
C2989      C3006   1.422       .  A
C2990      C3005   1.428       .  A
C2990      C2998   1.388       .  A
C2991      C3003   1.425       .  A
C2991      C2999   1.385       .  A
C2992      C3006   1.423       .  A
C2992      C3000   1.382       .  A
C2993      C3001   1.388       .  A
C2993      C3004   1.432       .  A
C2994      C3002   1.380       .  A
C2994      C3005   1.422       .  A
C2995      H3007   1.082       .  S
C2996      H3008   1.082       .  S
C2997      H3009   1.082       .  S
C2998      H3010   1.081       .  S
C2999      C3000   1.374       .  A
C2999      H3011   1.082       .  S
C3000      H3012   1.075       .  S
C3001      C3002   1.373       .  A
C3001      H3013   1.076       .  S
C3002      H3014   1.081       .  S
C3003      C3058   1.529       .  S
C3004      C3078   1.509       .  S
C3005      C3088   1.527       .  S
C3006      C3071   1.504       .  S
C3017      C3511   1.487       .  S
C3017      C3022   1.407       .  A
C3018      C3201   1.497       .  S
C3018      C3019   1.406       .  A
C3019      C3020   1.402       .  A
C3019      H3024   1.085       .  S
C3020      C3131   1.481       .  S
C3021      C3151   1.491       .  S
C3021      C3022   1.398       .  A
C3022      H3023   1.085       .  S
C3025      C3211   1.517       .  S
C3025      C3026   1.431       .  A
C3025      C3030   1.412       .  A
C3026      C3461   1.497       .  S
C3026      C3027   1.400       .  A
C3027      C3028   1.396       .  A
C3027      H3032   1.086       .  S
C3028      C3081   1.502       .  S
C3028      C3029   1.436       .  A
C3029      C3158   1.521       .  S
C3029      C3030   1.414       .  A
C3030      H3031   1.076       .  S
C3033      C3178   1.499       .  S
C3033      C3034   1.436       .  A
C3033      C3038   1.392       .  A
C3034      C3488   1.502       .  S
C3034      C3035   1.428       .  A
C3035      C3036   1.429       .  A
C3035      H3040   1.079       .  S
C3036      C3091   1.558       .  S
C3036      C3037   1.370       .  A
C3037      C3171   1.387       .  S
C3037      C3038   1.380       .  A
C3038      H3039   1.086       .  S
C3041      C3451   1.506       .  S
C3041      C3046   1.403       .  A
C3042      C3221   1.493       .  S
C3042      C3043   1.414       .  A
C3043      C3044   1.408       .  A
C3043      H3048   1.085       .  S
C3044      C3061   1.510       .  S
C3045      C3101   1.494       .  S
C3045      C3046   1.408       .  A
C3046      H3047   1.085       .  S
C3049      C3521   1.502       .  S
C3049      C3054   1.400       .  A
C3050      C3191   1.507       .  S
C3050      C3051   1.414       .  A
C3051      C3052   1.419       .  A
C3051      H3056   1.084       .  S
C3052      C3068   1.512       .  S
C3053      C3111   1.513       .  S
C3053      C3054   1.404       .  A
C3054      H3055   1.084       .  S
C3057      C3058   1.417       .  A
C3057      C3062   1.410       .  A
C3057     Br3064   1.923       .  S
C3058      C3059   1.424       .  A
C3059      C3060   1.424       .  A
C3059     Br3066   1.929       .  S
C3060      C3061   1.412       .  A
C3060     Br3065   1.926       .  S
C3061      C3062   1.409       .  A
C3067      C3068   1.424       .  A
C3067      C3072   1.411       .  A
C3067     Br3074   1.934       .  S
C3068      C3069   1.418       .  A
C3069      C3070   1.417       .  A
C3070      C3071   1.412       .  A
C3071      C3072   1.407       .  A
C3072     Br3073   1.934       .  S
C3077      C3078   1.411       .  A
C3077      C3082   1.412       .  A
C3077     Br3084   1.930       .  S
C3078      C3079   1.419       .  A
C3079      C3080   1.412       .  A
C3079     Br3086   1.928       .  S
C3080      C3081   1.408       .  A
C3080     Br3085   1.930       .  S
C3081      C3082   1.420       .  A
C3082     Br3083   1.935       .  S
C3087      C3088   1.388       .  A
C3087      C3092   1.380       .  A
C3087     Br3094   1.934       .  S
C3088      C3089   1.438       .  A
C3089      C3090   1.511       .  A
C3089     Br3096   1.960       .  S
C3090      C3091   1.536       .  A
C3090     Br3095   3.719       .  S
C3091      C3092   1.411       .  A
C3092     Br3093   1.940       .  S
C3097      C3098   1.409       .  A
C3097      C3102   1.394       .  A
C3097     Br3104   1.927       .  S
C3098      C3099   1.410       .  A
C3099      C3100   1.413       .  A
C3099     Br3106   1.929       .  S
C3100      C3101   1.421       .  A
C3100     Br3105   1.927       .  S
C3101      C3102   1.405       .  A
C3102     Br3103   1.915       .  S
C3107      C3108   1.411       .  A
C3107      C3112   1.402       .  A
C3107     Br3114   1.928       .  S
C3108      C3109   1.405       .  A
C3109      C3110   1.408       .  A
C3109     Br3116   1.927       .  S
C3110      C3111   1.429       .  A
C3110     Br3115   1.933       .  S
C3111      C3112   1.412       .  A
C3117      C3118   1.409       .  A
C3117      C3122   1.406       .  A
C3117     Br3124   1.924       .  S
C3118      C3119   1.409       .  A
C3119      C3120   1.408       .  A
C3119     Br3126   1.929       .  S
C3120      C3121   1.417       .  A
C3120     Br3125   1.925       .  S
C3121      C3122   1.415       .  A
C3122     Br3123   1.935       .  S
C3127      C3128   1.415       .  A
C3127      C3132   1.409       .  A
C3127     Br3134   1.930       .  S
C3128      C3129   1.415       .  A
C3129      C3130   1.400       .  A
C3129     Br3136   1.933       .  S
C3130      C3131   1.404       .  A
C3130     Br3135   1.928       .  S
C3131      C3132   1.410       .  A
C3132     Br3133   1.927       .  S
C3137      C3138   1.413       .  A
C3137      C3142   1.408       .  A
C3137     Br3144   1.930       .  S
C3138      C3139   1.409       .  A
C3139      C3140   1.402       .  A
C3140      C3141   1.409       .  A
C3140     Br3145   1.932       .  S
C3141      C3142   1.412       .  A
C3142     Br3143   1.931       .  S
C3147      C3148   1.409       .  A
C3147      C3152   1.410       .  A
C3147     Br3154   1.929       .  S
C3148      C3149   1.406       .  A
C3149      C3150   1.401       .  A
C3149     Br3156   1.927       .  S
C3150      C3151   1.408       .  A
C3150     Br3155   1.921       .  S
C3151      C3152   1.414       .  A
C3152     Br3153   1.927       .  S
C3157      C3158   1.433       .  A
C3157      C3162   1.421       .  A
C3157     Br3164   1.930       .  S
C3158      C3159   1.402       .  A
C3159      C3160   1.391       .  A
C3159     Br3166   1.916       .  S
C3160      C3161   1.397       .  A
C3160     Br3165   1.917       .  S
C3161      C3162   1.416       .  A
C3162     Br3163   1.928       .  S
C3167      C3168   1.652       .  A
C3167      C3172   1.606       .  A
C3167     Br3174   1.925       .  S
C3168      C3169   1.629       .  A
C3169      C3170   1.598       .  A
C3169     Br3176   1.931       .  S
C3170      C3171   1.617       .  A
C3170     Br3175   1.924       .  S
C3171      C3172   1.606       .  A
C3172     Br3173   1.919       .  S
C3177      C3178   1.413       .  A
C3177      C3182   1.410       .  A
C3177     Br3184   1.926       .  S
C3178      C3179   1.422       .  A
C3179      C3180   1.414       .  A
C3179     Br3186   1.924       .  S
C3180      C3181   1.406       .  A
C3180     Br3185   1.928   1_554  S
C3181      C3182   1.414       .  A
C3182     Br3183   1.936       .  S
C3187      C3188   1.417       .  A
C3187      C3192   1.422       .  A
C3187     Br3194   1.932       .  S
C3188      C3189   1.427       .  A
C3189      C3190   1.410       .  A
C3189     Br3196   1.939   1_554  S
C3190      C3191   1.408       .  A
C3190     Br3195   1.931       .  S
C3191      C3192   1.418       .  A
C3192     Br3193   1.925       .  S
C3197      C3198   1.406       .  A
C3197      C3202   1.405       .  A
C3197     Br3204   1.929   1_554  S
C3198      C3199   1.408       .  A
C3199      C3200   1.412       .  A
C3199     Br3206   1.930       .  S
C3200      C3201   1.418       .  A
C3200     Br3205   1.926       .  S
C3201      C3202   1.413       .  A
C3202     Br3203   1.919       .  S
C3207      C3208   1.418       .  A
C3207      C3212   1.420       .  A
C3207     Br3214   1.934       .  S
C3208      C3209   1.423       .  A
C3209      C3210   1.413       .  A
C3209     Br3216   1.939       .  S
C3210      C3211   1.413       .  A
C3210     Br3215   1.924       .  S
C3211      C3212   1.423       .  A
C3212     Br3213   1.935       .  S
C3217      C3218   1.411       .  A
C3217      C3222   1.404       .  A
C3217     Br3224   1.936       .  S
C3218      C3219   1.411       .  A
C3219      C3220   1.414       .  A
C3219     Br3226   1.933       .  S
C3220      C3221   1.416       .  A
C3220     Br3225   1.927       .  S
C3221      C3222   1.412       .  A
C3227      C3228   1.408       .  A
C3227      C3232   1.401       .  A
C3227     Br3234   1.940       .  S
C3228      C3229   1.408       .  A
C3229      C3230   1.416       .  A
C3229     Br3236   1.927       .  S
C3230      C3231   1.416       .  A
C3231      C3232   1.417       .  A
C3232     Br3233   1.932       .  S
C3237      C3238   1.415       .  A
C3237      C3242   1.409       .  A
C3237     Br3244   1.933       .  S
C3238      C3239   1.419       .  A
C3239      C3240   1.413       .  A
C3239     Br3246   1.916       .  S
C3240      C3241   1.407       .  A
C3240     Br3245   1.929       .  S
C3241      C3242   1.417       .  A
C3242     Br3243   1.937       .  S
C3247      C3248   1.416       .  A
C3247      C3252   1.413       .  A
C3247     Br3254   1.928       .  S
C3248      C3249   1.409       .  A
C3249      C3250   1.398       .  A
C3249     Br3256   1.924       .  S
C3250      C3251   1.407       .  A
C3250     Br3255   1.934       .  S
C3251      C3252   1.408       .  A
C3252     Br3253   1.929       .  S
C3257      C3258   1.412       .  A
C3257      C3262   1.411       .  A
C3257     Br3264   1.930       .  S
C3258      C3259   1.417       .  A
C3259      C3260   1.410       .  A
C3259     Br3266   1.923       .  S
C3260      C3261   1.407       .  A
C3260     Br3265   1.929       .  S
C3261      C3262   1.416       .  A
C3262     Br3263   1.934       .  S
C3267      C3268   1.411       .  A
C3267      C3272   1.410       .  A
C3267     Br3274   1.926       .  S
C3268      C3269   1.416       .  A
C3269      C3270   1.417       .  A
C3269     Br3276   1.925       .  S
C3270      C3271   1.413       .  A
C3270     Br3275   1.931       .  S
C3271      C3272   1.418       .  A
C3272     Br3273   1.930   1_556  S
C3277      C3278   1.424       .  A
C3277      C3282   1.412       .  A
C3277     Br3284   1.937       .  S
C3278      C3279   1.407       .  A
C3279      C3280   1.409       .  A
C3279     Br3286   1.927       .  S
C3280      C3281   1.421       .  A
C3280     Br3285   1.935       .  S
C3281      C3282   1.411       .  A
C3282     Br3283   1.934       .  S
C3287      C3288   1.418       .  A
C3287      C3292   1.402       .  A
C3287     Br3294   1.925       .  S
C3288      C3289   1.416       .  A
C3289      C3290   1.410       .  A
C3289     Br3296   1.926       .  S
C3290      C3291   1.405       .  A
C3290     Br3295   1.929       .  S
C3291      C3292   1.399       .  A
C3292     Br3293   1.930       .  S
C3297      C3298   1.416       .  A
C3297      C3302   1.412       .  A
C3297     Br3304   1.932       .  S
C3298      C3299   1.413       .  A
C3299      C3300   1.401       .  A
C3299     Br3306   1.908       .  S
C3300      C3301   1.405       .  A
C3300     Br3305   1.927       .  S
C3301      C3302   1.421       .  A
C3302     Br3303   1.934       .  S
C3307      C3308   1.434       .  A
C3307      C3312   1.439       .  A
C3307     Br3314   1.924       .  S
C3308      C3309   1.387       .  A
C3309      C3310   1.388       .  A
C3310      C3311   1.385       .  A
C3311      C3312   1.434       .  A
C3312     Br3313   1.925       .  S
C3317      C3318   1.420       .  A
C3317      C3322   1.413       .  A
C3317     Br3324   1.931       .  S
C3318      C3319   1.415       .  A
C3319      C3320   1.397       .  A
C3319     Br3326   1.927       .  S
C3320      C3321   1.405       .  A
C3320     Br3325   1.936       .  S
C3321      C3322   1.408       .  A
C3322     Br3323   1.927       .  S
C3327      C3328   1.406       .  A
C3327      C3332   1.412       .  A
C3327     Br3334   1.931       .  S
C3328      C3329   1.416       .  A
C3329      C3330   1.409       .  A
C3329     Br3336   1.929       .  S
C3330      C3331   1.410       .  A
C3330     Br3335   1.930       .  S
C3331      C3332   1.424       .  A
C3332     Br3333   1.929       .  S
C3337      C3338   1.409       .  A
C3337      C3342   1.408       .  A
C3338      C3339   1.417       .  A
C3339      C3340   1.406       .  A
C3339     Br3346   1.936       .  S
C3340      C3341   1.411       .  A
C3340     Br3345   1.928       .  S
C3341      C3342   1.418       .  A
C3342     Br3343   1.916       .  S
C3347      C3348   1.403       .  A
C3347      C3352   1.393       .  A
C3348      C3349   1.408       .  A
C3349      C3350   1.408       .  A
C3349     Br3356   1.929       .  S
C3350      C3351   1.421       .  A
C3350     Br3355   1.926       .  S
C3351      C3352   1.417       .  A
C3352     Br3353   1.934       .  S
C3357      C3358   1.411       .  A
C3357      C3362   1.416       .  A
C3357     Br3364   1.927       .  S
C3358      C3359   1.409       .  A
C3359      C3360   1.398       .  A
C3359     Br3366   1.932       .  S
C3360      C3361   1.410       .  A
C3361      C3362   1.423       .  A
C3362     Br3363   1.931       .  S
C3367      C3368   1.405       .  A
C3367      C3372   1.393       .  A
C3367     Br3374   1.923       .  S
C3368      C3369   1.427       .  A
C3369      C3370   1.405       .  A
C3369     Br3376   1.932       .  S
C3370      C3371   1.404       .  A
C3370     Br3375   1.931       .  S
C3371      C3372   1.408       .  A
C3372     Br3373   1.920       .  S
C3377      C3378   1.408       .  A
C3377      C3382   1.408       .  A
C3377     Br3384   1.932       .  S
C3378      C3379   1.408       .  A
C3379      C3380   1.404       .  A
C3379     Br3386   1.930       .  S
C3380      C3381   1.411       .  A
C3380     Br3385   1.927   1_655  S
C3381      C3382   1.419       .  A
C3382     Br3383   1.934       .  S
C3387      C3388   1.414       .  A
C3387      C3392   1.409       .  A
C3387     Br3394   1.931       .  S
C3388      C3389   1.411       .  A
C3389      C3390   1.414       .  A
C3389     Br3396   1.930       .  S
C3390      C3391   1.422       .  A
C3390     Br3395   1.932       .  S
C3391      C3392   1.412       .  A
C3392     Br3393   1.927       .  S
C3397      C3398   1.408       .  A
C3397      C3402   1.406       .  A
C3397     Br3404   1.935       .  S
C3398      C3399   1.412       .  A
C3399      C3400   1.414   1_655  A
C3399     Br3406   1.929   1_655  S
C3400      C3401   1.417   1_455  A
C3400     Br3405   1.927       .  S
C3401      C3402   1.422       .  A
C3402     Br3403   1.935       .  S
C3407      C3408   1.409       .  A
C3407      C3412   1.401       .  A
C3407     Br3414   1.924       .  S
C3408      C3409   1.426       .  A
C3409      C3410   1.409       .  A
C3409     Br3416   1.930       .  S
C3410      C3411   1.409       .  A
C3410     Br3415   1.932       .  S
C3411      C3412   1.409       .  A
C3412     Br3413   1.914       .  S
C3417      C3418   1.406       .  A
C3417      C3422   1.395       .  A
C3417     Br3424   1.920       .  S
C3418      C3419   1.419       .  A
C3419      C3420   1.413       .  A
C3419     Br3426   1.928       .  S
C3420      C3421   1.409       .  A
C3420     Br3425   1.930       .  S
C3421      C3422   1.401       .  A
C3422     Br3423   1.920       .  S
C3427      C3428   1.417       .  A
C3427      C3432   1.416       .  A
C3427     Br3434   1.933       .  S
C3428      C3429   1.413       .  A
C3429      C3430   1.406       .  A
C3429     Br3436   1.921       .  S
C3430      C3431   1.415       .  A
C3430     Br3435   1.940       .  S
C3431      C3432   1.413       .  A
C3432     Br3433   1.921       .  S
C3437      C3438   1.415       .  A
C3437      C3442   1.408       .  A
C3437     Br3444   1.936       .  S
C3438      C3439   1.406       .  A
C3439      C3440   1.410       .  A
C3439     Br3446   1.929       .  S
C3440      C3441   1.425       .  A
C3441      C3442   1.415       .  A
C3442     Br3443   1.922       .  S
C3447      C3448   1.407       .  A
C3447      C3452   1.416       .  A
C3447     Br3454   1.930       .  S
C3448      C3449   1.404       .  A
C3449      C3450   1.410       .  A
C3449     Br3456   1.923       .  S
C3450      C3451   1.417       .  A
C3450     Br3455   1.921       .  S
C3451      C3452   1.420       .  A
C3452     Br3453   1.922       .  S
C3457      C3458   1.411       .  A
C3457      C3462   1.413       .  A
C3457     Br3464   1.928       .  S
C3458      C3459   1.414       .  A
C3459      C3460   1.407       .  A
C3459     Br3466   1.939       .  S
C3460      C3461   1.412       .  A
C3460     Br3465   1.926       .  S
C3461      C3462   1.423       .  A
C3462     Br3463   1.936       .  S
C3467      C3468   1.416       .  A
C3467      C3472   1.415       .  A
C3467     Br3474   1.926       .  S
C3468      C3469   1.409       .  A
C3469      C3470   1.407       .  A
C3469     Br3476   1.923       .  S
C3470      C3471   1.416       .  A
C3470     Br3475   1.933       .  S
C3471      C3472   1.413       .  A
C3472     Br3473   1.932       .  S
C3477      C3478   1.416       .  A
C3477      C3482   1.413       .  A
C3477     Br3484   1.929       .  S
C3478      C3479   1.411       .  A
C3479      C3480   1.401       .  A
C3479     Br3486   1.923       .  S
C3480      C3481   1.403       .  A
C3480     Br3485   1.924   1_556  S
C3481      C3482   1.410       .  A
C3482     Br3483   1.930       .  S
C3487      C3488   1.417       .  A
C3487      C3492   1.423       .  A
C3487     Br3494   1.927       .  S
C3488      C3489   1.404       .  A
C3489      C3490   1.403       .  A
C3489     Br3496   1.928       .  S
C3490      C3491   1.415       .  A
C3490     Br3495   1.928       .  S
C3491      C3492   1.418       .  A
C3492     Br3493   1.929       .  S
C3497      C3498   1.429       .  A
C3497      C3502   1.406       .  A
C3497     Br3504   1.938       .  S
C3498      C3499   1.421       .  A
C3499      C3500   1.416       .  A
C3499     Br3506   1.934       .  S
C3500      C3501   1.412       .  A
C3500     Br3505   1.928       .  S
C3501      C3502   1.407       .  A
C3502     Br3503   1.936       .  S
C3507      C3508   1.408       .  A
C3507      C3512   1.412       .  A
C3507     Br3514   1.931       .  S
C3508      C3509   1.411       .  A
C3509      C3510   1.402       .  A
C3509     Br3516   1.934       .  S
C3510      C3511   1.412       .  A
C3510     Br3515   1.929       .  S
C3511      C3512   1.417       .  A
C3512     Br3513   1.924       .  S
C3517      C3518   1.417       .  A
C3517      C3522   1.411       .  A
C3517     Br3524   1.938       .  S
C3518      C3519   1.406       .  A
C3519      C3520   1.412       .  A
C3519     Br3526   1.929   1_554  S
C3520      C3521   1.420       .  A
C3521      C3522   1.416       .  A
C3522     Br3523   1.930       .  S
C3527      C3528   1.405       .  A
C3527      C3532   1.411       .  A
C3527     Br3534   1.926       .  S
C3528      C3529   1.414       .  A
C3529      C3530   1.412       .  A
C3529     Br3536   1.934       .  S
C3530      C3531   1.415       .  A
C3530     Br3535   1.930       .  S
C3531      C3532   1.418       .  A
C3532     Br3533   1.921       .  S
