geometry optimzed in LAMMPS
_audit_creation_date              2020-11-30 
_audit_creation_method            'lammps2cif' 
_symmetry_space_group_name_H-M    'P1' 
_symmetry_Int_Tables_number       1 
_symmetry_cell_setting            triclinic 
loop_ 
_symmetry_equiv_pos_as_xyz 
  x,y,z 
_cell_length_a                    40.75019198 
_cell_length_b                    40.765096104981815 
_cell_length_c                    35.49551137250145 
_cell_angle_alpha                 89.55972037726828 
_cell_angle_beta                  88.92028373470181 
_cell_angle_gamma                 118.3020496214764 
loop_ 
_atom_site_label 
_atom_site_type_symbol 
_atom_site_fract_x 
_atom_site_fract_y 
_atom_site_fract_z 
_atom_site_charge 
N1          N  0.39519912  0.09885828  0.33596094    -0.02900
C2          C  0.36302941  0.08555574  0.31614840    -0.00300
C3          C  0.34452407  0.10581626  0.32349214    -0.23200
C4          C  0.34200409  0.11151435  0.04021990    -0.23400
C5          C  0.37648696  0.11316016  0.04128314    -0.00400
H6          H  0.31877030  0.10203740  0.31145962     0.13300
H7          H  0.33219852  0.12639491  0.05820848     0.13400
N8          N  0.08125805  0.19815841  0.33302152    -0.02900
C9          C  0.07258466  0.22304214  0.31641925    -0.00300
C10         C  0.07972360  0.25251831  0.33981425    -0.23200
C11         C  0.12678795  0.26356912  0.02267406    -0.23400
C12         C  0.11991764  0.22705221  0.02217192    -0.00400
H13         H  0.07677281  0.27697583  0.33333433     0.13300
H14         H  0.14052402  0.28374292  0.04436547     0.13400
N15         N  0.19948520  0.10690628  0.02406001    -0.02900
C16         C  0.21921530  0.10337867  0.05323992    -0.00300
C17         C  0.25694774  0.12530045  0.04670851    -0.23200
C18         C  0.25331705  0.14543834  0.33857850    -0.23400
C19         C  0.21701407  0.13643213  0.33081245    -0.00400
H20         H  0.27900059  0.12786193  0.06473856     0.13300
H21         H  0.27811725  0.16623012  0.32411245     0.13400
N22         N  0.10453668  0.41223430  0.32798232    -0.02900
C23         C  0.13514879  0.41569445  0.30853480    -0.00300
C24         C  0.15265966  0.39936414  0.32851991    -0.23200
C25         C  0.12419643  0.37335410  0.01983155    -0.23400
C26         C  0.10203631  0.39037725  0.02335849    -0.00400
H27         H  0.17605287  0.39566251  0.31901774     0.13300
H28         H  0.12664672  0.35457366  0.03993779     0.13400
N29         N  0.41209820  0.31101680  0.34660891    -0.02900
C30         C  0.42361492  0.29202806  0.32301415    -0.00300
C31         C  0.43212889  0.26806846  0.34283638    -0.23200
C32         C  0.43190759  0.27584308  0.04163411    -0.23400
C33         C  0.41558619  0.29843763  0.04760606    -0.00400
H34         H  0.44165141  0.24943218  0.33138801     0.13300
H35         H  0.43313972  0.25670575  0.06207994     0.13400
N36         N  0.31084926  0.41842125  0.29612359    -0.02900
C37         C  0.28553589  0.42059523  0.98722901    -0.00300
C38         C  0.25467581  0.41808895  0.96960926    -0.23200
C39         C  0.26525015  0.42349658  0.26651168    -0.23400
C40         C  0.29410302  0.41468449  0.26269068    -0.00400
H41         H  0.23153382  0.42036926  0.98236904     0.13300
H42         H  0.24496046  0.41991257  0.24559152     0.13400
O43         O  0.45679627  0.44048898  0.29563497    -0.87800
C44         C  0.42977061  0.00062201  0.04819708     0.88200
Mg45       Mg  0.50090781  0.42533430  0.30095069     1.58100
O46         O  0.48746817  0.05755260  0.29754550    -0.87500
O47         O  0.44534200  0.47762273  0.25944172    -0.74900
C48         C  0.15944431  0.08737395  0.01923750     0.93300
O49         O  0.46556584  0.44025840  0.05450544    -0.74700
O50         O  0.14149184  0.05234860  0.02587020    -0.82200
Mg51       Mg  0.41759167  0.42894867  0.01378009     1.58000
C52         C  0.06539167  0.15888403  0.32536967     0.93200
O53         O  0.36486604  0.41493446  0.31238839    -0.80400
H54         H  0.49081516  0.07138554  0.24292131    -0.05800
C55         C  0.05489803  0.06974143  0.05359732     0.88100
O56         O  0.04019307  0.47879700  0.27245747    -0.75000
O57         O  0.42979556  0.48647115  0.01629871    -0.87700
O58         O  0.03015076  0.13878670  0.32941722    -0.80500
C59         C  0.40914860  0.08093249  0.00856826     0.93300
C60         C  0.35046155  0.43442779  0.29934571     0.93200
Mg61       Mg  0.07675352  0.08469236  0.30997883     1.58000
O62         O  0.14316357  0.10512744  0.00635113    -0.80500
O63         O  0.02979905  0.07572920  0.26973640    -0.74700
O64         O  0.40021683  0.05005344  0.99239685    -0.80500
O65         O  0.40453197  0.36731274  0.01208835    -0.82200
O66         O  0.09617417  0.46540205  0.32961074    -0.80600
C67         C  0.99491430  0.06383901  0.27299858     0.87600
O68         O  0.06565243  0.02646330  0.30494265    -0.87700
O69         O  0.04936933  0.07768113  0.02155123    -0.87800
O70         O  0.06440897  0.04468354  0.05936433    -0.74900
Mg71       Mg  0.43039054  0.01412984  0.29366785     1.58000
O72         O  0.44223456  0.10103806  0.02027982    -0.82200
H73         H  0.45804058  0.43842349  0.23943483    -0.06000
O74         O  0.02239893  0.46535197  0.02023290    -0.87500
H75         H  0.01704491  0.45536326  0.07586894    -0.05800
H76         H  0.07659687  0.02948385  0.24946054    -0.06000
C77         C  0.50068368  0.45231226  0.05262330     0.87600
C78         C  0.45309826  0.45112169  0.26401759     0.88200
C79         C  0.06160044  0.01212841  0.27358246     0.88200
H80         H  0.05057985  0.08377484  0.07739552    -0.06000
O81         O  0.45195763  0.03416855  0.05626076    -0.75000
Mg82       Mg  0.08000761  0.00730253  0.02311446     1.58000
H83         H  0.41328581  0.47904660  0.07048906    -0.06000
C84         C  0.42742572  0.35427419  0.01046895     0.93200
O85         O  0.04771480  0.41112216  0.31588245    -0.82200
C86         C  0.08218158  0.43070159  0.32239522     0.93300
O87         O  0.36948662  0.46920895  0.29286190    -0.82200
Mg88       Mg  0.00545843  0.09341304  0.01568114     1.58200
O89         O  0.46219002  0.37519291  0.00314801    -0.80500
O90         O  0.08679964  0.14455242  0.31915877    -0.82200
C91         C  0.01230373  0.25265045  0.18595309     0.87000
C92         C  0.49749927  0.22025917  0.15540569    -0.53200
C93         C  0.47378759  0.22941654  0.13747659     0.10000
C94         C  0.48035175  0.26954708  0.14517364     0.20900
C95         C  0.03511401  0.28930157  0.16305968    -0.53900
C96         C  0.01399232  0.29958441  0.14122942     0.10100
C97         C  0.50117071  0.26128328  0.20649746    -0.53500
C98         C  0.47860070  0.27208769  0.18859084     0.10600
H99         H  0.49757673  0.19399094  0.15075376     0.15100
H100        H  0.46133932  0.27737566  0.13016228     0.00900
H101        H  0.06520629  0.30432988  0.16109375     0.15400
H102        H  0.50336172  0.26186201  0.23700786     0.15200
C103        C  0.27537385  0.46994223  0.13184796     0.87000
C104        C  0.30424906  0.98633471  0.15757938    -0.53200
C105        C  0.29589519  0.00526884  0.18426077     0.10000
C106        C  0.25881706  0.00612148  0.17780655     0.20900
C107        C  0.23725990  0.44543554  0.15269150    -0.53900
C108        C  0.22755045  0.46386220  0.17929298     0.10100
C109        C  0.27127912  0.00365128  0.11170145    -0.53500
C110        C  0.25998125  0.02069969  0.13764595     0.10600
H111        H  0.32843036  0.98192761  0.15876068     0.15100
H112        H  0.25438906  0.02334590  0.19913660     0.00900
H113        H  0.21825941  0.41745957  0.14483356     0.15400
H114        H  0.27165403  0.00943537  0.08175109     0.15200
C115        C  0.22026709  0.23544235  0.13351884     0.87000
C116        C  0.21065144  0.21064335  0.16859086    -0.53200
C117        C  0.23792649  0.22186320  0.19473640     0.10000
C118        C  0.27379218  0.25812909  0.18229075     0.20900
C119        C  0.23196492  0.27459467  0.14826243    -0.53900
C120        C  0.25969684  0.28636460  0.17372783     0.10100
C121        C  0.25709970  0.23850250  0.11801960    -0.53500
C122        C  0.28538809  0.25049182  0.14307459     0.09900
H123        H  0.18322241  0.18680724  0.17283088     0.15100
H124        H  0.29665418  0.26784466  0.20251902     0.00900
H125        H  0.21846458  0.29104710  0.14052431     0.15400
H126        H  0.26250120  0.23554700  0.08865791     0.15200
C127        C  0.28742015  0.45205984  0.10050442     0.00400
C128        C  0.26516566  0.41444635  0.09115303    -0.11500
C129        C  0.26673212  0.40244518  0.05472732     0.02600
C130        C  0.29178741  0.42781534  0.02769859     0.00300
C131        C  0.31883755  0.46281480  0.03905859    -0.11400
C132        C  0.31757337  0.47472116  0.07554645     0.02500
H133        H  0.24495625  0.39460923  0.11094321     0.15500
H134        H  0.33885372  0.48219964  0.01866994     0.15500
C135        C  0.34542373  0.01106195  0.08041314     0.37100
C136        C  0.24088304  0.36462723  0.04502538     0.37000
N137        N  0.36874801  0.04014391  0.08838556    -0.43200
N138        N  0.22024371  0.33428715  0.03733680    -0.43200
C139        C  0.28747375  0.38309587  0.23885073     0.00400
C140        C  0.25589094  0.34923527  0.24814359    -0.11500
C141        C  0.24657569  0.31790516  0.22679720     0.02600
C142        C  0.26943273  0.31980844  0.19588505     0.00300
C143        C  0.30074581  0.35380474  0.18586386    -0.11400
C144        C  0.31035066  0.38549931  0.20770404     0.02500
H145        H  0.23829261  0.34735064  0.27230392     0.15500
H146        H  0.31751604  0.35555234  0.16112651     0.15500
C147        C  0.34354178  0.41978411  0.19810097     0.37100
C148        C  0.21364330  0.28395070  0.23762438     0.37000
N149        N  0.37033274  0.44724057  0.19071175    -0.43200
N150        N  0.18742042  0.25673327  0.24673788    -0.43200
C151        C  0.38459024  0.28496975  0.07643466     0.00400
C152        C  0.38508899  0.30785633  0.10601808    -0.11500
C153        C  0.35549237  0.29507275  0.13299190     0.02600
C154        C  0.32374023  0.25982328  0.12883467     0.00300
C155        C  0.32595020  0.23555989  0.10243591    -0.11400
C156        C  0.35557652  0.24749581  0.07656396     0.02500
H157        H  0.40878465  0.33538563  0.10838687     0.15500
H158        H  0.30291289  0.20757923  0.10026701     0.15500
C159        C  0.35502096  0.22014340  0.05061319     0.37100
C160        C  0.35995785  0.31735745  0.16569626     0.37000
N161        N  0.34322578  0.20426045  0.34858130    -0.43200
N162        N  0.36503700  0.33491447  0.19252899    -0.43200
C163        C  0.43013749  0.29727522  0.28157456     0.00400
C164        C  0.46574608  0.32308875  0.26876264    -0.11500
C165        C  0.47964567  0.31943018  0.23378809     0.02600
C166        C  0.45871581  0.28796157  0.21153059     0.00300
C167        C  0.42116884  0.26489206  0.22180370    -0.11400
C168        C  0.40656442  0.26978287  0.25636174     0.02500
H169        H  0.48460207  0.34389638  0.28761803     0.15500
H170        H  0.40432290  0.24103059  0.20474228     0.15500
C171        C  0.36795412  0.24507495  0.26596815     0.37100
C172        C  0.98475348  0.35051666  0.19854906     0.37000
N173        N  0.33662648  0.22545907  0.27235871    -0.43200
N174        N  0.00574565  0.37607678  0.18083845    -0.43200
C175        C  0.07292711  0.37799164  0.05294146     0.00400
C176        C  0.08406726  0.38796997  0.09002397    -0.11500
C177        C  0.06344261  0.36453622  0.12020195     0.02600
C178        C  0.03095220  0.33075782  0.11311529     0.00300
C179        C  0.01743330  0.32392926  0.07646050    -0.11400
C180        C  0.03835686  0.34677904  0.04626327     0.02500
H181        H  0.11073423  0.41202879  0.09512453     0.15500
H182        H  0.49858776  0.29052037  0.06460302     0.15500
C183        C  0.02711051  0.33416004  0.00839889     0.37100
C184        C  0.07717718  0.37497836  0.15773742     0.37000
N185        N  0.51918232  0.32116007  0.97103467    -0.43200
N186        N  0.08785952  0.38342938  0.18792483    -0.43200
C187        C  0.14479711  0.42536839  0.26832681     0.00400
C188        C  0.14849847  0.39866014  0.24645273    -0.11500
C189        C  0.17385745  0.40933867  0.21594586     0.02600
C190        C  0.19288886  0.44733493  0.20406347     0.00300
C191        C  0.18220783  0.47207088  0.22137189    -0.11400
C192        C  0.16138873  0.46233729  0.25516301     0.02500
H193        H  0.13555351  0.36993020  0.25657416     0.15500
H194        H  0.19701192  0.00242903  0.21079473     0.15500
C195        C  0.16426181  0.49186226  0.27916830     0.37100
C196        C  0.18218531  0.38107257  0.20133032     0.37000
N197        N  0.17025323  0.01663304  0.29781273    -0.43200
N198        N  0.18861282  0.35798805  0.19037830    -0.43200
C199        C  0.20682442  0.07693203  0.08592354     0.00400
C200        C  0.19447982  0.03942567  0.07786513    -0.11500
C201        C  0.20787531  0.01872335  0.09780688     0.02600
C202        C  0.23520534  0.03625901  0.12552098     0.00300
C203        C  0.24096321  0.07065317  0.13896531    -0.11400
C204        C  0.22551320  0.09036385  0.12026251     0.02500
H205        H  0.17883970  0.02757692  0.05293899     0.15500
H206        H  0.25986525  0.08345306  0.16188298     0.15500
C207        C  0.23515871  0.12736129  0.13261588     0.37100
C208        C  0.19508000  0.98045978  0.08730044     0.37000
N209        N  0.24313710  0.15704194  0.14267358    -0.43200
N210        N  0.18650092  0.45069792  0.07744732    -0.43200
C211        C  0.23042324  0.20077208  0.23165186     0.00400
C212        C  0.20613561  0.16192595  0.23200713    -0.11500
C213        C  0.19628162  0.14035368  0.26527605     0.02600
C214        C  0.21084901  0.15720733  0.29969481     0.00300
C215        C  0.23349389  0.19620191  0.29986450    -0.11400
C216        C  0.24410609  0.21783933  0.26659679     0.02500
H217        H  0.19564157  0.14764407  0.20582805     0.15500
H218        H  0.24566858  0.20946364  0.32615648     0.15500
C219        C  0.27022465  0.25685385  0.27007866     0.37100
C220        C  0.17297342  0.10075214  0.26246228     0.37000
N221        N  0.29169636  0.28783784  0.27406547    -0.43200
N222        N  0.15369115  0.06915910  0.25916847    -0.43200
C223        C  0.18763815  0.22179134  0.10661424     0.00400
C224        C  0.19031599  0.20919595  0.07040125    -0.11500
C225        C  0.16523761  0.20595064  0.04272077     0.02600
C226        C  0.13524409  0.21268847  0.05140018     0.00300
C227        C  0.12842199  0.21810986  0.08900983    -0.11400
C228        C  0.15409638  0.22255709  0.11665289     0.02500
H229        H  0.21256637  0.20325915  0.06236551     0.15500
H230        H  0.10483024  0.22258482  0.09607471     0.15500
C231        C  0.14577095  0.22982297  0.15438287     0.37100
C232        C  0.17327918  0.19960286  0.00482208     0.37000
N233        N  0.13786607  0.23522654  0.18428756    -0.43200
N234        N  0.16285836  0.20249644  0.30728071    -0.43200
C235        C  0.03253658  0.23940325  0.21291351     0.00400
C236        C  0.06985168  0.26291862  0.22216807    -0.11500
C237        C  0.08503813  0.25560999  0.25397187     0.02600
C238        C  0.06316308  0.22379680  0.27679991     0.00300
C239        C  0.02797373  0.19782178  0.26510970    -0.11400
C240        C  0.01234845  0.20535624  0.23372963     0.02500
H241        H  0.08673164  0.28883456  0.20718660     0.15500
H242        H  0.01101775  0.17352020  0.28264311     0.15500
C243        C  0.49328662  0.17568757  0.22153123     0.37100
C244        C  0.12181253  0.28338020  0.26478790     0.37000
N245        N  0.46337893  0.15167224  0.21770327    -0.43200
N246        N  0.15092694  0.30600382  0.27371005    -0.43200
C247        C  0.44647499  0.20180951  0.11220120     0.00400
C248        C  0.45571858  0.20341135  0.07373566    -0.11500
C249        C  0.43439199  0.17370476  0.05022943     0.02600
C250        C  0.40509929  0.14054860  0.06569190     0.00300
C251        C  0.39616266  0.13887980  0.10434793    -0.11400
C252        C  0.41618143  0.16929153  0.12744551     0.02500
H253        H  0.00372432  0.24832583  0.06626310     0.15500
H254        H  0.37224064  0.11435219  0.11610092     0.15500
C255        C  0.40493377  0.16682023  0.16666966     0.37100
C256        C  0.44069469  0.17911109  0.01003422     0.37000
N257        N  0.39579096  0.16499140  0.19802440    -0.43200
N258        N  0.00296361  0.23390439  0.97280198    -0.43200
C259        C  0.31681348  0.01942801  0.21965680     0.00400
C260        C  0.29570855  0.01149799  0.25326258    -0.11500
C261        C  0.31155157  0.02955737  0.28648644     0.02600
C262        C  0.34955274  0.05654314  0.28678773     0.00300
C263        C  0.37171536  0.06176878  0.25423697    -0.11400
C264        C  0.35575150  0.04328809  0.22076691     0.02500
H265        H  0.26599096  0.99251328  0.25316177     0.15500
H266        H  0.40086056  0.08265496  0.25399012     0.15500
C267        C  0.37966995  0.05204390  0.18772497     0.37100
C268        C  0.28701374  0.02243526  0.31878934     0.37000
N269        N  0.39778149  0.55893461  0.16737247    -0.43200
N270        N  0.26647533  0.01677912  0.34390930    -0.43200
N271        N  0.38401618  0.09807962  0.67777712    -0.02900
C272        C  0.35295055  0.08590640  0.65663336    -0.00300
C273        C  0.32948830  0.09918295  0.66990369    -0.23200
C274        C  0.36526715  0.13220022  0.34863371    -0.23400
C275        C  0.39617880  0.12791467  0.35567043    -0.00400
H276        H  0.30351539  0.09492911  0.65801155     0.13300
H277        H  0.35815186  0.15190362  0.36159738     0.13400
N278        N  0.08147472  0.20097173  0.67288880    -0.02900
C279        C  0.07334764  0.22598130  0.65570701    -0.00300
C280        C  0.08243201  0.25656118  0.67805834    -0.23200
C281        C  0.09387255  0.24622068  0.37188622    -0.23400
C282        C  0.09471258  0.21303086  0.36706080    -0.00400
H283        H  0.07997508  0.28115291  0.67098198     0.13300
H284        H  0.10473144  0.26504934  0.39521697     0.13400
N285        N  0.19234002  0.10700230  0.35304320    -0.02900
C286        C  0.21487314  0.09940883  0.37541814    -0.00300
C287        C  0.25208072  0.12232329  0.36667007    -0.23200
C288        C  0.25036808  0.14600782  0.67883843    -0.23400
C289        C  0.21442570  0.13541996  0.66790584    -0.00400
H290        H  0.27585830  0.12200729  0.37945663     0.13300
H291        H  0.27590958  0.16683833  0.66545213     0.13400
N292        N  0.10089559  0.40686183  0.65188351    -0.02900
C293        C  0.13062172  0.40798891  0.63265945    -0.00300
C294        C  0.14103836  0.38312817  0.64797423    -0.23200
C295        C  0.13223257  0.38482003  0.36086079    -0.23400
C296        C  0.10313925  0.39301852  0.35987417    -0.00400
H297        H  0.16352115  0.37803510  0.63823207     0.13300
H298        H  0.13654758  0.36777971  0.38168345     0.13400
N299        N  0.40815912  0.31328655  0.67288878    -0.02900
C300        C  0.41836871  0.29551874  0.64645101    -0.00300
C301        C  0.43009688  0.27238251  0.66297274    -0.23200
C302        C  0.42410149  0.27082970  0.37982678    -0.23400
C303        C  0.40940195  0.29534460  0.38146890    -0.00400
H304        H  0.43849139  0.25403212  0.64880046     0.13300
H305        H  0.42210180  0.25137634  0.40177881     0.13400
N306        N  0.30771268  0.41924233  0.62560433    -0.02900
C307        C  0.29072319  0.42706732  0.32101370    -0.00300
C308        C  0.26268291  0.43064493  0.30369956    -0.23200
C309        C  0.25947442  0.41829450  0.59544728    -0.23400
C310        C  0.29005571  0.41198273  0.59224749    -0.00400
H311        H  0.24235044  0.43714666  0.31683183     0.13300
H312        H  0.23773735  0.41091198  0.57508270     0.13400
O313        O  0.45437151  0.44476145  0.62717800    -0.87800
C314        C  0.43743023  0.00090481  0.37662648     0.88200
Mg315      Mg  0.49825606  0.42976475  0.63305922     1.58100
O316        O  0.48259845  0.06370723  0.63769704    -0.87500
O317        O  0.44312521  0.48201764  0.59102802    -0.74900
C318        C  0.15208886  0.08525723  0.35025102     0.93300
O319        O  0.46716966  0.43687752  0.38454663    -0.74700
O320        O  0.13655096  0.04996936  0.35565087    -0.82200
Mg321      Mg  0.41934478  0.42773034  0.34465588     1.58000
C322        C  0.06423250  0.16133458  0.66680700     0.93200
O323        O  0.36258809  0.41762203  0.64153267    -0.80400
H324        H  0.48833627  0.07841044  0.58316069    -0.05800
C325        C  0.04690260  0.06120939  0.38982688     0.88100
O326        O  0.04259347  0.48016382  0.59800685    -0.75000
O327        O  0.43445829  0.48664291  0.34712885    -0.87700
O328        O  0.02925460  0.14178541  0.67391388    -0.80500
C329        C  0.42103651  0.08371451  0.33557247     0.93300
C330        C  0.34748459  0.43662022  0.62905947     0.93200
Mg331      Mg  0.07366750  0.08676094  0.64859022     1.58000
O332        O  0.13313966  0.10131911  0.34028033    -0.80500
O333        O  0.02694598  0.07991619  0.60924674    -0.74700
O334        O  0.40957408  0.05106900  0.32275252    -0.80500
O335        O  0.40359386  0.36468223  0.34352607    -0.82200
O336        O  0.09717063  0.46287497  0.65557429    -0.80600
C337        C  0.99221536  0.06842936  0.61318565     0.87600
O338        O  0.06179447  0.02874689  0.64122940    -0.87700
O339        O  0.03862655  0.06803012  0.35853292    -0.87800
O340        O  0.05932554  0.03815888  0.39406438    -0.74900
Mg341      Mg  0.42696733  0.01945536  0.63027742     1.58000
O342        O  0.45475368  0.10326560  0.34569303    -0.82200
H343        H  0.45641690  0.44323935  0.57096561    -0.06000
O344        O  0.01680334  0.45867715  0.35890930    -0.87500
H345        H  0.01413979  0.44805590  0.41431462    -0.05800
H346        H  0.07239492  0.03434678  0.58564139    -0.06000
C347        C  0.50196236  0.44758709  0.38144102     0.87600
C348        C  0.45103086  0.45562263  0.59555112     0.88200
C349        C  0.05751196  0.01589066  0.60914949     0.88200
H350        H  0.04284326  0.07465618  0.41427685    -0.06000
O351        O  0.46022909  0.03439738  0.38402755    -0.75000
Mg352      Mg  0.07557517  0.00244908  0.35568875     1.58000
H353        H  0.41891455  0.48068917  0.40155584    -0.06000
C354        C  0.42568741  0.35062965  0.34108849     0.93200
O355        O  0.04660940  0.41075514  0.64027553    -0.82200
C356        C  0.08118439  0.42823531  0.64738330     0.93300
O357        O  0.36582473  0.47177485  0.62376159    -0.82200
Mg358      Mg  0.99193779  0.08057993  0.35596205     1.58200
O359        O  0.46023282  0.37070797  0.33250759    -0.80500
O360        O  0.08464816  0.14639004  0.65855727    -0.82200
C361        C  0.01198165  0.24660248  0.51987480     0.87000
C362        C  0.49677066  0.22851855  0.49137501    -0.53200
C363        C  0.47453193  0.23487779  0.46783000     0.10000
C364        C  0.47401580  0.27221683  0.47455717     0.20900
C365        C  0.03473685  0.28050461  0.49338777    -0.53900
C366        C  0.01335592  0.28916870  0.47013470     0.10100
C367        C  0.48520108  0.26408219  0.53997731    -0.53500
C368        C  0.46369921  0.27191908  0.51654626     0.10600
H369        H  0.50069219  0.20400840  0.48926471     0.15100
H370        H  0.45595560  0.27778738  0.45546702     0.00900
H371        H  0.06487380  0.29558521  0.49124310     0.15400
H372        H  0.48213820  0.26404969  0.57048600     0.15200
C373        C  0.28337184  0.47663209  0.46454141     0.87000
C374        C  0.31341594  0.99969640  0.49226346    -0.53200
C375        C  0.30289806  0.02089743  0.51337593     0.10000
C376        C  0.26384027  0.01607677  0.50414810     0.20900
C377        C  0.24966590  0.45259709  0.49160145    -0.53900
C378        C  0.23792904  0.47307371  0.51349233     0.10100
C379        C  0.27493410  0.00159561  0.44134833    -0.53500
C380        C  0.26239227  0.02145750  0.46184803     0.10600
H381        H  0.33827701  0.99724526  0.49782796     0.15100
H382        H  0.25721812  0.03551661  0.51984513     0.00900
H383        H  0.23775625  0.42276298  0.49489939     0.15400
H384        H  0.27470206  0.00142717  0.41088727     0.15200
C385        C  0.20796916  0.22770198  0.46769880     0.87000
C386        C  0.20168501  0.20245311  0.50206233    -0.53200
C387        C  0.23034474  0.21494527  0.52676871     0.10000
C388        C  0.26433398  0.25232036  0.51313578     0.20900
C389        C  0.21851683  0.26622397  0.48384796    -0.53900
C390        C  0.24804141  0.27917289  0.50728127     0.10100
C391        C  0.24473604  0.23316956  0.44945227    -0.53500
C392        C  0.27449436  0.24609904  0.47272376     0.09900
H393        H  0.17525884  0.17755145  0.50720979     0.15100
H394        H  0.28836283  0.26271236  0.53179772     0.00900
H395        H  0.20354031  0.28165468  0.47785364     0.15400
H396        H  0.24886298  0.23095545  0.41969605     0.15200
C397        C  0.29572511  0.45736234  0.43506400     0.00400
C398        C  0.27109566  0.42044419  0.42500714    -0.11500
C399        C  0.27174349  0.40837177  0.38836834     0.02600
C400        C  0.29766384  0.43307584  0.36150121     0.00300
C401        C  0.32587920  0.46734804  0.37289984    -0.11400
C402        C  0.32569804  0.47945839  0.40947157     0.02500
H403        H  0.24867684  0.40193863  0.44377395     0.15500
H404        H  0.34589561  0.48640706  0.35228856     0.15500
C405        C  0.35577962  0.01404802  0.41917136     0.37100
C406        C  0.24356922  0.37163091  0.37805515     0.37000
N407        N  0.37816855  0.04442021  0.42437907    -0.43200
N408        N  0.22105720  0.34214583  0.36990992    -0.43200
C409        C  0.28377801  0.37869831  0.57093010     0.00400
C410        C  0.25456792  0.34460200  0.58425622    -0.11500
C411        C  0.24187321  0.31271782  0.56282159     0.02600
C412        C  0.25996657  0.31371659  0.52853200     0.00300
C413        C  0.28922210  0.34765717  0.51482562    -0.11400
C414        C  0.30121837  0.38030300  0.53585421     0.02500
H415        H  0.24029865  0.34340081  0.61078098     0.15500
H416        H  0.30243293  0.34865412  0.48773574     0.15500
C417        C  0.33106221  0.41487038  0.52107422     0.37100
C418        C  0.20926010  0.27950591  0.57581550     0.37000
N419        N  0.35522006  0.44250551  0.50928725    -0.43200
N420        N  0.18286896  0.25281230  0.58568300    -0.43200
C421        C  0.37584928  0.28348788  0.40652992     0.00400
C422        C  0.37635269  0.30413301  0.43816176    -0.11500
C423        C  0.34522362  0.29110465  0.46328476     0.02600
C424        C  0.31259498  0.25713984  0.45614370     0.00300
C425        C  0.31426615  0.23512707  0.42677481    -0.11400
C426        C  0.34467156  0.24807199  0.40189186     0.02500
H427        H  0.40121433  0.33008615  0.44353989     0.15500
H428        H  0.29069227  0.20796310  0.42204515     0.15500
C429        C  0.34333465  0.22374099  0.37207582     0.37100
C430        C  0.34880958  0.31239599  0.49658656     0.37000
N431        N  0.34838122  0.19828827  0.68457874    -0.43200
N432        N  0.35315707  0.32945941  0.52367587    -0.43200
C433        C  0.41587926  0.29745190  0.60480933     0.00400
C434        C  0.44472623  0.32700445  0.58462675    -0.11500
C435        C  0.45494424  0.32152509  0.54824547     0.02600
C436        C  0.43870894  0.28539991  0.53326091     0.00300
C437        C  0.40526747  0.25840659  0.54986456    -0.11400
C438        C  0.39317355  0.26460924  0.58503418     0.02500
H439        H  0.46153387  0.35328447  0.59803756     0.15500
H440        H  0.39098684  0.23103139  0.53765933     0.15500
C441        C  0.35857079  0.23583870  0.60091705     0.37100
C442        C  0.98103719  0.34710320  0.52392252     0.37000
N443        N  0.32997632  0.21250993  0.61178162    -0.43200
N444        N  0.99986208  0.37282687  0.50518692    -0.43200
C445        C  0.07120790  0.37395482  0.38608778     0.00400
C446        C  0.07773166  0.38273838  0.42417860    -0.11500
C447        C  0.05775836  0.35606691  0.45218556     0.02600
C448        C  0.03005624  0.32025947  0.44216494     0.00300
C449        C  0.02104296  0.31284356  0.40420130    -0.11400
C450        C  0.04148319  0.33932964  0.37604707     0.02500
H451        H  0.10107545  0.40906509  0.43189923     0.15500
H452        H  0.49699199  0.28970819  0.39983103     0.15500
C453        C  0.03508365  0.32850908  0.33707313     0.37100
C454        C  0.06733835  0.36548997  0.49090563     0.37000
N455        N  0.52817537  0.30551110  0.30792066    -0.43200
N456        N  0.07400549  0.37271942  0.52220522    -0.43200
C457        C  0.14913007  0.42877725  0.59804794     0.00400
C458        C  0.14692268  0.40769335  0.56623916    -0.11500
C459        C  0.17385453  0.42196299  0.53708465     0.02600
C460        C  0.20523217  0.45755150  0.54063692     0.00300
C461        C  0.20563441  0.47931465  0.57155489    -0.11400
C462        C  0.17828553  0.46520517  0.60004565     0.02500
H463        H  0.12557566  0.37877446  0.56565742     0.15500
H464        H  0.22461645  0.01124446  0.56791631     0.15500
C465        C  0.18379541  0.48706209  0.63325278     0.37100
C466        C  0.16805515  0.39922789  0.50434338     0.37000
N467        N  0.17930624  0.01523576  0.64550301    -0.43200
N468        N  0.16306278  0.38077754  0.47821231    -0.43200
C469        C  0.20488380  0.07208825  0.40656919     0.00400
C470        C  0.19687963  0.03591207  0.39681494    -0.11500
C471        C  0.21242901  0.01714310  0.41679758     0.02600
C472        C  0.23814569  0.03582821  0.44556009     0.00300
C473        C  0.24036635  0.06886065  0.45938518    -0.11400
C474        C  0.22241786  0.08611858  0.44108747     0.02500
H475        H  0.18223133  0.02398631  0.37122348     0.15500
H476        H  0.25805168  0.08260558  0.48286263     0.15500
C477        C  0.22802511  0.12172228  0.45436187     0.37100
C478        C  0.20207985  0.97928441  0.40668214     0.37000
N479        N  0.23261349  0.15024098  0.46513774    -0.43200
N480        N  0.18590375  0.44731717  0.41006306    -0.43200
C481        C  0.22542935  0.19493716  0.56420465     0.00400
C482        C  0.20169600  0.15590273  0.56650718    -0.11500
C483        C  0.19375495  0.13570908  0.60077345     0.02600
C484        C  0.20922433  0.15437347  0.63427669     0.00300
C485        C  0.23182180  0.19330444  0.63231639    -0.11400
C486        C  0.24100018  0.21338572  0.59815828     0.02500
H487        H  0.19020290  0.14048233  0.54110474     0.15500
H488        H  0.24475919  0.20795361  0.65780034     0.15500
C489        C  0.26789346  0.25231727  0.59996148     0.37100
C490        C  0.17159147  0.09573907  0.60003272     0.37000
N491        N  0.29018816  0.28318198  0.60284308    -0.43200
N492        N  0.15350371  0.06372103  0.59886110    -0.43200
C493        C  0.17380254  0.21320314  0.44246198     0.00400
C494        C  0.17609927  0.20512264  0.40414644    -0.11500
C495        C  0.14872391  0.20148891  0.37903345     0.02600
C496        C  0.11642731  0.20228060  0.39238180     0.00300
C497        C  0.11099078  0.20381473  0.43125720    -0.11400
C498        C  0.13924849  0.20956220  0.45626672     0.02500
H499        H  0.19980404  0.20361239  0.39227335     0.15500
H500        H  0.08590972  0.20405957  0.44173473     0.15500
C501        C  0.13229864  0.21347330  0.49558446     0.37100
C502        C  0.15694491  0.20212730  0.33929576     0.37000
N503        N  0.12591065  0.21612160  0.52697249    -0.43200
N504        N  0.16084331  0.19922250  0.64397644    -0.43200
C505        C  0.03260743  0.23570649  0.54891822     0.00400
C506        C  0.06906452  0.26151260  0.55894773    -0.11500
C507        C  0.08444825  0.25664381  0.59196695     0.02600
C508        C  0.06326271  0.22567590  0.61607793     0.00300
C509        C  0.02894815  0.19800446  0.60451153    -0.11400
C510        C  0.01345505  0.20254840  0.57147108     0.02500
H511        H  0.08505086  0.28713952  0.54313748     0.15500
H512        H  0.01262746  0.17412938  0.62280705     0.15500
C513        C  0.47980579  0.18627432  0.56313136     0.37100
C514        C  0.12126131  0.28516071  0.60165238     0.37000
N515        N  0.44978691  0.16374576  0.55685332    -0.43200
N516        N  0.15064039  0.30809494  0.60945751    -0.43200
C517        C  0.45467379  0.20745371  0.43844227     0.00400
C518        C  0.47212107  0.21068550  0.40307782    -0.11500
C519        C  0.45518557  0.18321668  0.37587344     0.02600
C520        C  0.42192178  0.15039647  0.38509876     0.00300
C521        C  0.40601472  0.14631649  0.42141541    -0.11400
C522        C  0.42149690  0.17478225  0.44758388     0.02500
H523        H  0.97733372  0.21908819  0.39510791     0.15500
H524        H  0.37949337  0.12202819  0.42821692     0.15500
C525        C  0.40198310  0.17041221  0.48314076     0.37100
C526        C  0.47044441  0.19099497  0.33792040     0.37000
N527        N  0.38590535  0.16665248  0.51142381    -0.43200
N528        N  0.94642044  0.17173240  0.31148471    -0.43200
C529        C  0.31982688  0.03470784  0.55029266     0.00400
C530        C  0.29736662  0.01857868  0.58242112    -0.11500
C531        C  0.30892702  0.03324811  0.61782489     0.02600
C532        C  0.34459316  0.06387040  0.62194989     0.00300
C533        C  0.36898856  0.07758703  0.59038124    -0.11400
C534        C  0.35682828  0.06305384  0.55445491     0.02500
H535        H  0.27015119  0.99481522  0.57981384     0.15500
H536        H  0.39652556  0.10102641  0.59343689     0.15500
C537        C  0.38213601  0.07828006  0.52240555     0.37100
C538        C  0.28247326  0.01794923  0.64900829     0.37000
N539        N  0.39841345  0.59747924  0.49153583    -0.43200
N540        N  0.26075175  0.00589391  0.67356783    -0.43200
N541        N  0.38061209  0.09250096  0.01330964    -0.02900
C542        C  0.34806552  0.07876722  0.99422899    -0.00300
C543        C  0.32415113  0.09027256  0.01028380    -0.23200
C544        C  0.34592776  0.11988713  0.70049405    -0.23400
C545        C  0.37941821  0.11961743  0.70440919    -0.00400
H546        H  0.29722656  0.08513453  0.00026340     0.13300
H547        H  0.33539932  0.13498651  0.71738160     0.13400
N548        N  0.10289455  0.20999347  0.99001474    -0.02900
C549        C  0.09992073  0.23707464  0.96987978    -0.00300
C550        C  0.11387340  0.26983628  0.98984216    -0.23200
C551        C  0.09782459  0.25105357  0.70971159    -0.23400
C552        C  0.09732177  0.21712489  0.70572935    -0.00400
H553        H  0.11444600  0.29569389  0.98146993     0.13300
H554        H  0.11036261  0.27080047  0.73203743     0.13400
N555        N  0.18899497  0.10702342  0.69077000    -0.02900
C556        C  0.21050025  0.10140227  0.71647683    -0.00300
C557        C  0.24794602  0.12471915  0.70917944    -0.23200
C558        C  0.26144216  0.14249209  0.01287574    -0.23400
C559        C  0.22634536  0.13187515  0.99945801    -0.00400
H560        H  0.27121039  0.12571747  0.72429107     0.13300
H561        H  0.28778209  0.16142092  0.99951907     0.13400
N562        N  0.10405533  0.41024035  0.99181469    -0.02900
C563        C  0.12728850  0.40465815  0.96791699    -0.00300
C564        C  0.14022833  0.38241320  0.98462763    -0.23200
C565        C  0.11693633  0.36550926  0.67737316    -0.23400
C566        C  0.09264890  0.38016983  0.67881035    -0.00400
H567        H  0.15967024  0.37407511  0.97252221     0.13300
H568        H  0.11689484  0.34418107  0.69575088     0.13400
N569        N  0.41425528  0.31468707  0.01422877    -0.02900
C570        C  0.42491345  0.29766341  0.98751248    -0.00300
C571        C  0.43636328  0.27415313  0.00362183    -0.23200
C572        C  0.42588389  0.27457195  0.70092613    -0.23400
C573        C  0.40929329  0.29705804  0.70637047    -0.00400
H574        H  0.44480229  0.25599380  0.98914812     0.13300
H575        H  0.42707420  0.25547859  0.72152827     0.13400
N576        N  0.30761084  0.41386085  0.96309207    -0.02900
C577        C  0.28647695  0.42697275  0.65001807    -0.00300
C578        C  0.25660259  0.42663572  0.63223680    -0.23200
C579        C  0.25813290  0.41011814  0.93287726    -0.23400
C580        C  0.29006854  0.40606855  0.92977875    -0.00400
H581        H  0.23414528  0.43009588  0.64503121     0.13300
H582        H  0.23639272  0.40184743  0.91236357     0.13400
O583        O  0.45648089  0.44395860  0.96602329    -0.87800
C584        C  0.43080953  0.00280092  0.71343538     0.88200
Mg585      Mg  0.50181215  0.43106450  0.97213323     1.58100
O586        O  0.47970163  0.05936560  0.97088879    -0.87500
O587        O  0.44256770  0.47776612  0.92793319    -0.74900
C588        C  0.14884364  0.08561208  0.68696157     0.93300
O589        O  0.46245517  0.43867797  0.71640617    -0.74700
O590        O  0.13306504  0.05020005  0.69075570    -0.82200
Mg591      Mg  0.41590247  0.43040698  0.67528585     1.58000
C592        C  0.08378093  0.16997069  0.98546107     0.93200
O593        O  0.36304930  0.41381439  0.98044732    -0.80400
H594        H  0.48311933  0.07273860  0.91618763    -0.05800
C595        C  0.04362511  0.06001164  0.72853554     0.88100
O596        O  0.04799424  0.48309764  0.93416709    -0.75000
O597        O  0.43083986  0.48941673  0.67900454    -0.87700
O598        O  0.04892145  0.15204672  0.99335884    -0.80500
C599        C  0.41186598  0.08542239  0.67481018     0.93300
C600        C  0.34734918  0.43180872  0.96668631     0.93200
Mg601      Mg  0.08884983  0.09163823  0.97380049     1.58000
O602        O  0.13017425  0.10222914  0.67798184    -0.80500
O603        O  0.04463209  0.08518820  0.93129553    -0.74700
O604        O  0.40284968  0.05452268  0.65866647    -0.80500
O605        O  0.40044230  0.36745260  0.67225119    -0.82200
O606        O  0.10057386  0.46615670  0.99479640    -0.80600
C607        C  0.01025416  0.07595755  0.93324014     0.87600
O608        O  0.07446841  0.03265586  0.97095045    -0.87700
O609        O  0.03592126  0.06909412  0.69799869    -0.87800
O610        O  0.05569406  0.03645814  0.73074162    -0.74900
Mg611      Mg  0.42454066  0.01494630  0.96442838     1.58000
O612        O  0.44466873  0.10498748  0.68725334    -0.82200
H613        H  0.45754658  0.43949113  0.91004541    -0.06000
O614        O  0.01750162  0.45866468  0.68384747    -0.87500
H615        H  0.01302228  0.44771955  0.73927757    -0.05800
H616        H  0.08932000  0.03637070  0.91644105    -0.06000
C617        C  0.49733263  0.44975500  0.71406084     0.87600
C618        C  0.45193721  0.45262994  0.93385775     0.88200
C619        C  0.07209635  0.01888168  0.93955003     0.88200
H620        H  0.03933481  0.07187527  0.75410434    -0.06000
O621        O  0.45237866  0.03625089  0.72238578    -0.75000
Mg622      Mg  0.07231597  0.00268637  0.68973991     1.58000
H623        H  0.41529860  0.48301272  0.73345604    -0.06000
C624        C  0.42234575  0.35320969  0.66945208     0.93200
O625        O  0.04992390  0.41426068  0.97917036    -0.82200
C626        C  0.08438177  0.43152755  0.98677341     0.93300
O627        O  0.36507627  0.46665468  0.95990166    -0.82200
Mg628      Mg  0.98918203  0.08191722  0.69684248     1.58200
O629        O  0.45718146  0.37343544  0.66215912    -0.80500
O630        O  0.10264871  0.15305506  0.97858487    -0.82200
C631        C  0.01728323  0.25467626  0.85053385     0.87000
C632        C  0.49188457  0.22719120  0.82761368    -0.53200
C633        C  0.46852024  0.23378870  0.80607471     0.10000
C634        C  0.47096838  0.27250676  0.81164225     0.20900
C635        C  0.03623016  0.28734422  0.82174402    -0.53900
C636        C  0.01180790  0.29444728  0.80172088     0.10100
C637        C  0.48652085  0.26657179  0.87613387    -0.53500
C638        C  0.46428144  0.27477778  0.85414109     0.10600
H639        H  0.49432823  0.20186827  0.82521921     0.15100
H640        H  0.45219738  0.27812308  0.79350913     0.00900
H641        H  0.06584290  0.30231605  0.81527382     0.15400
H642        H  0.48546703  0.26750978  0.90672959     0.15200
C643        C  0.27814589  0.47055849  0.79799059     0.87000
C644        C  0.30836784  0.99912282  0.82392932    -0.53200
C645        C  0.29718755  0.01809463  0.84797500     0.10000
C646        C  0.25718374  0.01171374  0.84093794     0.20900
C647        C  0.24364917  0.44601431  0.82410777    -0.53900
C648        C  0.23242205  0.46616632  0.84723428     0.10100
C649        C  0.26678296  0.00116440  0.77628665    -0.53500
C650        C  0.25387377  0.01875319  0.79941679     0.10600
H651        H  0.33384939  0.99732273  0.82766961     0.15100
H652        H  0.25089742  0.03057944  0.85785566     0.00900
H653        H  0.23107920  0.41605220  0.82585687     0.15400
H654        H  0.26567526  0.00295535  0.74590501     0.15200
C655        C  0.21231188  0.22691993  0.80220223     0.87000
C656        C  0.20685693  0.20127436  0.83616736    -0.53200
C657        C  0.23666872  0.21312706  0.85945679     0.10000
C658        C  0.27029828  0.25048962  0.84534817     0.20900
C659        C  0.22393497  0.26530302  0.81905287    -0.53900
C660        C  0.25410698  0.27756707  0.84142871     0.10100
C661        C  0.24836498  0.23210166  0.78215268    -0.53500
C662        C  0.27888841  0.24466069  0.80433915     0.09900
H663        H  0.18054942  0.17639318  0.84190840     0.15100
H664        H  0.29514398  0.26059428  0.86284431     0.00900
H665        H  0.20890464  0.28098376  0.81470976     0.15400
H666        H  0.25145565  0.22976236  0.75218299     0.15200
C667        C  0.28975159  0.45200567  0.76683005     0.00400
C668        C  0.26367911  0.41651042  0.75430014    -0.11500
C669        C  0.26417643  0.40644877  0.71674858     0.02600
C670        C  0.29172587  0.43146838  0.69119234     0.00300
C671        C  0.32103735  0.46402125  0.70481962    -0.11400
C672        C  0.32052288  0.47445667  0.74218080     0.02500
H673        H  0.24026757  0.39791072  0.77199500     0.15500
H674        H  0.34232460  0.48347338  0.68544679     0.15500
C675        C  0.34997687  0.01494121  0.75074651     0.37100
C676        C  0.23424840  0.37155998  0.70430552     0.37000
N677        N  0.37314775  0.04417779  0.75864263    -0.43200
N678        N  0.21017957  0.34370319  0.69434293    -0.43200
C679        C  0.28636121  0.37408553  0.90818224     0.00400
C680        C  0.25871498  0.33909262  0.92119883    -0.11500
C681        C  0.24745690  0.30797965  0.89901713     0.02600
C682        C  0.26573193  0.31085358  0.86434324     0.00300
C683        C  0.29389928  0.34568045  0.85125691    -0.11400
C684        C  0.30442770  0.37749734  0.87315443     0.02500
H685        H  0.24411751  0.33661465  0.94785583     0.15500
H686        H  0.30710563  0.34806352  0.82384986     0.15500
C687        C  0.33338161  0.41307467  0.85939378     0.37100
C688        C  0.21535151  0.27398654  0.91125408     0.37000
N689        N  0.35693858  0.44156094  0.84861672    -0.43200
N690        N  0.18896877  0.24709034  0.92064957    -0.43200
C691        C  0.37761165  0.28293961  0.73431285     0.00400
C692        C  0.37829814  0.30441702  0.76522323    -0.11500
C693        C  0.34860632  0.29076212  0.79205381     0.02600
C694        C  0.31648537  0.25595121  0.78656918     0.00300
C695        C  0.31797330  0.23325112  0.75790726    -0.11400
C696        C  0.34792345  0.24600268  0.73235547     0.02500
H697        H  0.40235349  0.33149277  0.76881850     0.15500
H698        H  0.29477411  0.20552396  0.75461420     0.15500
C699        C  0.34769523  0.21972434  0.70526653     0.37100
C700        C  0.35338671  0.31213921  0.82552892     0.37000
N701        N  0.35529756  0.19791298  0.03075675    -0.43200
N702        N  0.35892035  0.32918625  0.85278092    -0.43200
C703        C  0.42154683  0.29972399  0.94603333     0.00400
C704        C  0.44927217  0.32953234  0.92498648    -0.11500
C705        C  0.45707306  0.32435503  0.88750400     0.02600
C706        C  0.44002712  0.28829706  0.87240317     0.00300
C707        C  0.40751391  0.26122130  0.89040717    -0.11400
C708        C  0.39762381  0.26716088  0.92672093     0.02500
H709        H  0.46671656  0.35579725  0.93814668     0.15500
H710        H  0.39240345  0.23399014  0.87813846     0.15500
C711        C  0.36407569  0.23851466  0.94434557     0.37100
C712        C  0.98775579  0.35330082  0.86705445     0.37000
N713        N  0.33636518  0.21556731  0.95731671    -0.43200
N714        N  0.00851587  0.37977133  0.85039888    -0.43200
C715        C  0.06239958  0.36697406  0.70717330     0.00400
C716        C  0.07219508  0.38123937  0.74326773    -0.11500
C717        C  0.05439548  0.35894146  0.77496425     0.02600
C718        C  0.02484400  0.32248500  0.77054462     0.00300
C719        C  0.01190017  0.31045331  0.73433076    -0.11400
C720        C  0.03084883  0.33212223  0.70254376     0.02500
H721        H  0.09692521  0.40785055  0.74671221     0.15500
H722        H  0.49209527  0.28833165  0.73379224     0.15500
C723        C  0.02127294  0.31603789  0.66562508     0.37100
C724        C  0.06944644  0.37299918  0.81126305     0.37000
N725        N  0.51673725  0.30915925  0.63932296    -0.43200
N726        N  0.08171497  0.38462733  0.84026034    -0.43200
C727        C  0.14370160  0.42371459  0.93202172     0.00400
C728        C  0.14099746  0.40162004  0.90088109    -0.11500
C729        C  0.16804382  0.41494955  0.87161295     0.02600
C730        C  0.19943083  0.45078225  0.87419444     0.00300
C731        C  0.19962692  0.47342489  0.90417965    -0.11400
C732        C  0.17248697  0.46036668  0.93261595     0.02500
H733        H  0.11905151  0.37289098  0.90078073     0.15500
H734        H  0.21737489  0.00580190  0.90272621     0.15500
C735        C  0.17861077  0.48350557  0.96494649     0.37100
C736        C  0.16231753  0.39099067  0.83993599     0.37000
N737        N  0.18071546  0.00995717  0.98471312    -0.43200
N738        N  0.15715517  0.37147121  0.81467992    -0.43200
C739        C  0.19952540  0.07396622  0.74796363     0.00400
C740        C  0.18847731  0.03699657  0.73851119    -0.11500
C741        C  0.20311799  0.01671230  0.75721746     0.02600
C742        C  0.22946413  0.03395998  0.78577902     0.00300
C743        C  0.23381153  0.06745031  0.80036264    -0.11400
C744        C  0.21811779  0.08701807  0.78229702     0.02500
H745        H  0.17262745  0.02546535  0.71364820     0.15500
H746        H  0.25242828  0.08023843  0.82348696     0.15500
C747        C  0.22890415  0.12418429  0.79466555     0.37100
C748        C  0.19202499  0.97918209  0.74515499     0.37000
N749        N  0.23881939  0.15427585  0.80446789    -0.43200
N750        N  0.17731115  0.44403468  0.74818570    -0.43200
C751        C  0.23408209  0.19231032  0.89583734     0.00400
C752        C  0.21075496  0.15316102  0.89803149    -0.11500
C753        C  0.20547410  0.13245394  0.93169981     0.02600
C754        C  0.22292765  0.15084682  0.96474542     0.00300
C755        C  0.24620802  0.18962391  0.96251954    -0.11400
C756        C  0.25235769  0.21021439  0.92907067     0.02500
H757        H  0.19729209  0.13815990  0.87300991     0.15500
H758        H  0.26045471  0.20417743  0.98756257     0.15500
C759        C  0.27787194  0.24949656  0.93118637     0.37100
C760        C  0.18418558  0.09242225  0.93055589     0.37000
N761        N  0.29913834  0.28066696  0.93436009    -0.43200
N762        N  0.16708296  0.06034835  0.92878012    -0.43200
C763        C  0.17736715  0.21363979  0.77825821     0.00400
C764        C  0.17802676  0.20541522  0.73979561    -0.11500
C765        C  0.15035494  0.20313245  0.71575488     0.02600
C766        C  0.11961076  0.20628827  0.73025261     0.00300
C767        C  0.11581407  0.20856141  0.76926376    -0.11400
C768        C  0.14400649  0.21189837  0.79328282     0.02500
H769        H  0.20056973  0.20225724  0.72719002     0.15500
H770        H  0.09184906  0.21035872  0.78074304     0.15500
C771        C  0.13801365  0.21457318  0.83302896     0.37100
C772        C  0.15643318  0.20135983  0.67592687     0.37000
N773        N  0.13210083  0.21583499  0.86481147    -0.43200
N774        N  0.17858481  0.19369205  0.97420377    -0.43200
C775        C  0.04177101  0.24472813  0.87522426     0.00400
C776        C  0.07996363  0.26963767  0.87831897    -0.11500
C777        C  0.10089528  0.26493942  0.90640079     0.02600
C778        C  0.08387640  0.23457236  0.93233400     0.00300
C779        C  0.04734208  0.20728730  0.92648621    -0.11400
C780        C  0.02600134  0.21221777  0.89892200     0.02500
H781        H  0.09353690  0.29472120  0.86122330     0.15500
H782        H  0.03351302  0.18437313  0.94633444     0.15500
C783        C  0.47945409  0.18512571  0.89761363     0.37100
C784        C  0.13907757  0.29379995  0.90968869     0.37000
N785        N  0.44953387  0.16174386  0.89246778    -0.43200
N786        N  0.16928268  0.31765457  0.91214796    -0.43200
C787        C  0.44482787  0.20520221  0.77952452     0.00400
C788        C  0.45839396  0.20630828  0.74270861    -0.11500
C789        C  0.43867701  0.17729313  0.71798331     0.02600
C790        C  0.40661177  0.14511592  0.73100706     0.00300
C791        C  0.39394443  0.14353338  0.76836031    -0.11400
C792        C  0.41240077  0.17337254  0.79244302     0.02500
H793        H  0.97625685  0.22262231  0.73284042     0.15500
H794        H  0.36811258  0.11974732  0.77798333     0.15500
C795        C  0.39707689  0.17080146  0.83002058     0.37100
C796        C  0.44917557  0.18309784  0.67857688     0.37000
N797        N  0.38421604  0.16801838  0.85997702    -0.43200
N798        N  0.94596224  0.17520578  0.64973818    -0.43200
C799        C  0.31443949  0.03066788  0.88545071     0.00400
C800        C  0.29232199  0.01347315  0.91766281    -0.11500
C801        C  0.30381295  0.02727444  0.95353559     0.02600
C802        C  0.33921370  0.05826330  0.95823196     0.00300
C803        C  0.36310601  0.07348639  0.92644072    -0.11400
C804        C  0.35099388  0.05979207  0.89013749     0.02500
H805        H  0.26542326  0.98939661  0.91485437     0.15500
H806        H  0.39034442  0.09736436  0.92968680     0.15500
C807        C  0.37611880  0.07650984  0.85827772     0.37100
C808        C  0.27769927  0.01020581  0.98477159     0.37000
N809        N  0.39562498  0.58704638  0.83431338    -0.43200
N810        N  0.25630554  0.99658740  0.00941596    -0.43200
N811        N  0.39248748  0.59838465  0.34087091    -0.02900
C812        C  0.36059344  0.58610979  0.32076515    -0.00300
C813        C  0.34296197  0.60732841  0.32750853    -0.23200
C814        C  0.34074377  0.60743955  0.04045766    -0.23400
C815        C  0.37556354  0.60973034  0.04165792    -0.00400
H816        H  0.31804830  0.60476986  0.31451068     0.13300
H817        H  0.33031706  0.62233517  0.05779031     0.13400
N818        N  0.07893356  0.69841425  0.33943213    -0.02900
C819        C  0.06913195  0.72271953  0.32348097    -0.00300
C820        C  0.07274668  0.75006326  0.34839534    -0.23200
C821        C  0.12037478  0.76001001  0.02469638    -0.23400
C822        C  0.11675055  0.72469725  0.02247016    -0.00400
H823        H  0.06837027  0.77380531  0.34272204     0.13300
H824        H  0.13164392  0.77925718  0.04764454     0.13400
N825        N  0.20112168  0.60892890  0.02532496    -0.02900
C826        C  0.22031666  0.60597287  0.05545973    -0.00300
C827        C  0.25755974  0.63180155  0.05214658    -0.23200
C828        C  0.25233061  0.64365127  0.33649835    -0.23400
C829        C  0.21586665  0.63533317  0.33054518    -0.00400
H830        H  0.27958910  0.63539027  0.07091437     0.13300
H831        H  0.27676343  0.66367971  0.32086771     0.13400
N832        N  0.10379793  0.91014230  0.32413057    -0.02900
C833        C  0.13577875  0.91526773  0.30619017    -0.00300
C834        C  0.15194042  0.89741125  0.32597334    -0.23200
C835        C  0.12793153  0.87810373  0.02313135    -0.23400
C836        C  0.10383182  0.89302082  0.02519905    -0.00400
H837        H  0.17596860  0.89445948  0.31721558     0.13300
H838        H  0.13084516  0.85996467  0.04370553     0.13400
N839        N  0.41797349  0.81509529  0.34731762    -0.02900
C840        C  0.43310562  0.79709745  0.32732998    -0.00300
C841        C  0.43827705  0.77236168  0.34981409    -0.23200
C842        C  0.43349703  0.78057473  0.04694074    -0.23400
C843        C  0.41480310  0.80123818  0.05136309    -0.00400
H844        H  0.44875455  0.75359015  0.34111306     0.13300
H845        H  0.43645757  0.76317334  0.06831100     0.13400
N846        N  0.31181048  0.91770139  0.29691192    -0.02900
C847        C  0.28635961  0.92434014  0.97862566    -0.00300
C848        C  0.25790163  0.92400466  0.95814128    -0.23200
C849        C  0.26415872  0.92275516  0.27198400    -0.23400
C850        C  0.29320581  0.91476762  0.26475235    -0.00400
H851        H  0.23499622  0.92809515  0.96852245     0.13300
H852        H  0.24248761  0.91930999  0.25279236     0.13400
O853        O  0.45869346  0.94358035  0.29436319    -0.87800
C854        C  0.43074228  0.49820180  0.04847831     0.88200
Mg855      Mg  0.50283183  0.92939403  0.29771668     1.58100
O856        O  0.48457127  0.55674123  0.30011910    -0.87500
O857        O  0.44584785  0.97802812  0.25617816    -0.74900
C858        C  0.16128326  0.58789120  0.01893138     0.93300
O859        O  0.46250214  0.94183649  0.05695153    -0.74700
O860        O  0.14407841  0.55259979  0.02470536    -0.82200
Mg861      Mg  0.41619696  0.93067960  0.01389188     1.58000
C862        C  0.06423135  0.65950744  0.33054686     0.93200
O863        O  0.36678916  0.91601984  0.31241280    -0.80400
H864        H  0.48533904  0.57037950  0.24580802    -0.05800
C865        C  0.05803588  0.57022455  0.05296557     0.88100
O866        O  0.03980553  0.97756300  0.26880406    -0.75000
O867        O  0.42869955  0.98857718  0.01614325    -0.87700
O868        O  0.02900970  0.63882161  0.33317292    -0.80500
C869        C  0.40914024  0.57788919  0.00963055     0.93300
C870        C  0.35172246  0.93453760  0.29847378     0.93200
Mg871      Mg  0.07646852  0.58613624  0.31425861     1.58000
O872        O  0.14433552  0.60495621  0.00599926    -0.80500
O873        O  0.03079693  0.57854531  0.27312454    -0.74700
O874        O  0.40055830  0.54712271  0.99358145    -0.80500
O875        O  0.40285573  0.86867851  0.01273444    -0.82200
O876        O  0.09664602  0.96406680  0.32593190    -0.80600
C877        C  0.99584290  0.56591219  0.27600692     0.87600
O878        O  0.06495201  0.52765640  0.30875731    -0.87700
O879        O  0.05152230  0.57721336  0.02093793    -0.87800
O880        O  0.06764851  0.54528568  0.05896164    -0.74900
Mg881      Mg  0.42851486  0.51342680  0.29661755     1.58000
O882        O  0.44230570  0.59842226  0.02079070    -0.82200
H883        H  0.45703557  0.93710439  0.23858488    -0.06000
O884        O  0.02171016  0.96495335  0.01953456    -0.87500
H885        H  0.01627098  0.95372142  0.07493191    -0.05800
H886        H  0.07643582  0.53103188  0.25337726    -0.06000
C887        C  0.49770785  0.95432645  0.05633153     0.87600
C888        C  0.45334881  0.95165898  0.26227431     0.88200
C889        C  0.06139775  0.51348067  0.27737019     0.88200
H890        H  0.05454870  0.58501573  0.07654797    -0.06000
O891        O  0.45281061  0.53168461  0.05677999    -0.75000
Mg892      Mg  0.08176483  0.50712366  0.02239263     1.58000
H893        H  0.41223087  0.98170366  0.07032526    -0.06000
C894        C  0.42587708  0.85576091  0.01303841     0.93200
O895        O  0.04747067  0.91017870  0.31233458    -0.82200
C896        C  0.08203683  0.92928304  0.31878574     0.93300
O897        O  0.37034976  0.96921351  0.29051356    -0.82200
Mg898      Mg  0.00769537  0.59288025  0.01582414     1.58200
O899        O  0.46084369  0.87684561  0.00748578    -0.80500
O900        O  0.08634785  0.64590565  0.32468254    -0.82200
C901        C  0.01452414  0.75382807  0.18920798     0.87000
C902        C  0.50244425  0.71816044  0.14719212    -0.53200
C903        C  0.47566286  0.72608263  0.13491765     0.10000
C904        C  0.47796402  0.76271790  0.15044305     0.20900
C905        C  0.03762980  0.79002688  0.16566707    -0.53900
C906        C  0.01669645  0.79927537  0.14220921     0.10100
C907        C  0.50157458  0.74722295  0.20603729    -0.53500
C908        C  0.47751340  0.75908563  0.19374113     0.10600
H909        H  0.50491421  0.69420126  0.13750051     0.15100
H910        H  0.45637393  0.76935288  0.13954350     0.00900
H911        H  0.06776879  0.80536854  0.16481905     0.15400
H912        H  0.50557917  0.74459724  0.23591946     0.15200
C913        C  0.27525900  0.97043831  0.12673993     0.87000
C914        C  0.30346564  0.48677782  0.16316493    -0.53200
C915        C  0.29389565  0.50554808  0.18887345     0.10000
C916        C  0.25650414  0.50529393  0.18108692     0.20900
C917        C  0.23749807  0.94644948  0.14843802    -0.53900
C918        C  0.22909232  0.96501901  0.17599092     0.10100
C919        C  0.27057003  0.50227659  0.11550703    -0.53500
C920        C  0.25824447  0.51924974  0.14054978     0.10600
H921        H  0.32788588  0.48285053  0.16550040     0.15100
H922        H  0.25105737  0.52239153  0.20175315     0.00900
H923        H  0.21784408  0.91867265  0.14079792     0.15400
H924        H  0.27170920  0.50774783  0.08539570     0.15200
C925        C  0.21683042  0.73468932  0.13406560     0.87000
C926        C  0.20762891  0.70992267  0.16910640    -0.53200
C927        C  0.23449474  0.72202932  0.19572784     0.10000
C928        C  0.26965075  0.75930007  0.18362859     0.20900
C929        C  0.22665857  0.77345085  0.14869735    -0.53900
C930        C  0.25395189  0.78618254  0.17456301     0.10100
C931        C  0.25452381  0.73935091  0.11915434    -0.53500
C932        C  0.28250383  0.75252624  0.14456071     0.09900
H933        H  0.18067146  0.68534476  0.17291731     0.15100
H934        H  0.29231073  0.77002819  0.20417424     0.00900
H935        H  0.21247241  0.78907054  0.14031160     0.15400
H936        H  0.26059995  0.73631744  0.09001803     0.15200
C937        C  0.28556820  0.95254139  0.09386825     0.00400
C938        C  0.26094043  0.91615388  0.08215050    -0.11500
C939        C  0.26240303  0.90546440  0.04505573     0.02600
C940        C  0.28975755  0.93065043  0.01954227     0.00300
C941        C  0.31790059  0.96419254  0.03273880    -0.11400
C942        C  0.31659614  0.97492891  0.06972368     0.02500
H943        H  0.23904437  0.89634678  0.10052561     0.15500
H944        H  0.33926066  0.98361658  0.01345718     0.15500
C945        C  0.34524671  0.51184444  0.08494420     0.37100
C946        C  0.23433002  0.86926721  0.03318121     0.37000
N947        N  0.36773766  0.54160440  0.09208278    -0.43200
N948        N  0.21185077  0.84031238  0.02363600    -0.43200
C949        C  0.28447248  0.88322369  0.23987488     0.00400
C950        C  0.25278325  0.84951300  0.24980336    -0.11500
C951        C  0.24168600  0.81836046  0.22766278     0.02600
C952        C  0.26315681  0.82011098  0.19564095     0.00300
C953        C  0.29359260  0.85417848  0.18425663    -0.11400
C954        C  0.30500592  0.88571106  0.20674756     0.02500
H955        H  0.23652571  0.84757635  0.27510692     0.15500
H956        H  0.30877673  0.85589937  0.15829172     0.15500
C957        C  0.33813875  0.91962020  0.19609175     0.37100
C958        C  0.20825386  0.78486817  0.23856209     0.37000
N959        N  0.36505512  0.94659624  0.18774434    -0.43200
N960        N  0.18144395  0.75810868  0.24747943    -0.43200
C961        C  0.38357624  0.78773821  0.07996412     0.00400
C962        C  0.38209511  0.81182455  0.10715991    -0.11500
C963        C  0.35201368  0.79937606  0.13351901     0.02600
C964        C  0.32139008  0.76309169  0.13085656     0.00300
C965        C  0.32517581  0.73819947  0.10640951    -0.11400
C966        C  0.35569910  0.74980173  0.08159416     0.02500
H967        H  0.40475998  0.84010835  0.10826963     0.15500
H968        H  0.30288861  0.70971220  0.10518803     0.15500
C969        C  0.35716717  0.72168331  0.05821752     0.37100
C970        C  0.35523601  0.82329282  0.16439559     0.37000
N971        N  0.34225045  0.71629797  0.33819198    -0.43200
N972        N  0.36001249  0.84258287  0.18975578    -0.43200
C973        C  0.44316941  0.80197890  0.28661026     0.00400
C974        C  0.48099369  0.81774392  0.27710026    -0.11500
C975        C  0.49289979  0.80706888  0.24458014     0.02600
C976        C  0.46635707  0.78031092  0.22050619     0.00300
C977        C  0.42856818  0.76982645  0.22662043    -0.11400
C978        C  0.41685226  0.78085979  0.25947302     0.02500
H979        H  0.50128850  0.83518127  0.29726295     0.15500
H980        H  0.40806984  0.75072928  0.20752511     0.15500
C981        C  0.37773794  0.76900430  0.26542996     0.37100
C982        C  0.98628072  0.85134707  0.19768991     0.37000
N983        N  0.34634402  0.76001785  0.26931403    -0.43200
N984        N  0.00773560  0.87728571  0.18077622    -0.43200
C985        C  0.07399857  0.87929586  0.05412308     0.00400
C986        C  0.08440953  0.88923334  0.09138056    -0.11500
C987        C  0.06469199  0.86477890  0.12121469     0.02600
C988        C  0.03342205  0.83017010  0.11375530     0.00300
C989        C  0.02017230  0.82305275  0.07690974    -0.11400
C990        C  0.04056543  0.84685255  0.04698283     0.02500
H991        H  0.11017565  0.91422944  0.09685950     0.15500
H992        H  0.50714752  0.78584721  0.06788441     0.15500
C993        C  0.03029169  0.83436773  0.00890433     0.37100
C994        C  0.07799856  0.87533533  0.15884802     0.37000
N995        N  0.53723625  0.82032258  0.97780722    -0.43200
N996        N  0.08819223  0.88383026  0.18916748    -0.43200
C997        C  0.14705666  0.92628362  0.26635546     0.00400
C998        C  0.15053701  0.89984093  0.24383981    -0.11500
C999        C  0.17565146  0.91070138  0.21311659     0.02600
C1000       C  0.19513052  0.94883053  0.20180561     0.00300
C1001       C  0.18542559  0.97375253  0.22027767    -0.11400
C1002       C  0.16437093  0.96356814  0.25398222     0.02500
H1003       H  0.13708415  0.87088069  0.25325278     0.15500
H1004       H  0.19329410  0.50049517  0.21123626     0.15500
C1005       C  0.16683181  0.99279978  0.27815182     0.37100
C1006       C  0.18306239  0.88223575  0.19743283     0.37000
N1007       N  0.16803616  0.51560504  0.29914657    -0.43200
N1008       N  0.18861678  0.85892533  0.18548711    -0.43200
C1009       C  0.20833064  0.57777745  0.08673154     0.00400
C1010       C  0.19690078  0.54078074  0.07724571    -0.11500
C1011       C  0.20884821  0.51913452  0.09774362     0.02600
C1012       C  0.23434181  0.53543945  0.12723561     0.00300
C1013       C  0.23914159  0.56923331  0.14157214    -0.11400
C1014       C  0.22495544  0.58979575  0.12227962     0.02500
H1015       H  0.18269698  0.53004532  0.05146043     0.15500
H1016       H  0.25646862  0.58101539  0.16579372     0.15500
C1017       C  0.23364153  0.62622668  0.13581426     0.37100
C1018       C  0.19630131  0.48110645  0.08644446     0.37000
N1019       N  0.24101363  0.65564640  0.14628261    -0.43200
N1020       N  0.18504416  0.94988778  0.07878439    -0.43200
C1021       C  0.22714047  0.70054039  0.23253359     0.00400
C1022       C  0.20407121  0.66144596  0.23237940    -0.11500
C1023       C  0.19473581  0.63943838  0.26535777     0.02600
C1024       C  0.20860418  0.65600869  0.30007149     0.00300
C1025       C  0.22995212  0.69511382  0.30082386    -0.11400
C1026       C  0.23983788  0.71728222  0.26782769     0.02500
H1027       H  0.19412817  0.64730953  0.20604360     0.15500
H1028       H  0.24174913  0.70818469  0.32729655     0.15500
C1029       C  0.26417558  0.75662112  0.27189173     0.37100
C1030       C  0.17274616  0.59970992  0.26195163     0.37000
N1031       N  0.28423314  0.78790788  0.27640388    -0.43200
N1032       N  0.15456163  0.56803928  0.25795272    -0.43200
C1033       C  0.18450950  0.72007150  0.10685937     0.00400
C1034       C  0.18844900  0.70880365  0.07037133    -0.11500
C1035       C  0.16373610  0.70571627  0.04239798     0.02600
C1036       C  0.13267871  0.71068048  0.05124536     0.00300
C1037       C  0.12456977  0.71425495  0.08892639    -0.11400
C1038       C  0.15016460  0.71926649  0.11674332     0.02500
H1039       H  0.21162430  0.70435867  0.06224812     0.15500
H1040       H  0.10014560  0.71735173  0.09593891     0.15500
C1041       C  0.14120252  0.72638371  0.15429100     0.37100
C1042       C  0.17356513  0.70229819  0.00415007     0.37000
N1043       N  0.13284602  0.73195653  0.18392132    -0.43200
N1044       N  0.16184621  0.70918529  0.31271140    -0.43200
C1045       C  0.03399504  0.74132031  0.21783070     0.00400
C1046       C  0.06997268  0.76616266  0.22995781    -0.11500
C1047       C  0.08390396  0.75852665  0.26261250     0.02600
C1048       C  0.06213810  0.72520680  0.28336948     0.00300
C1049       C  0.02873437  0.69840859  0.26895618    -0.11400
C1050       C  0.01386618  0.70642688  0.23731439     0.02500
H1051       H  0.08631874  0.79307078  0.21644287     0.15500
H1052       H  0.01215021  0.67275335  0.28468814     0.15500
C1053       C  0.50482152  0.66601980  0.20357140     0.37100
C1054       C  0.11939343  0.78668459  0.27596741     0.37000
N1055       N  0.47808531  0.63962881  0.19515408    -0.43200
N1056       N  0.14762869  0.80928708  0.28688011    -0.43200
C1057       C  0.44671037  0.69862132  0.11113448     0.00400
C1058       C  0.45248575  0.70176322  0.07196729    -0.11500
C1059       C  0.43060111  0.67221266  0.04881460     0.02600
C1060       C  0.40423839  0.63789814  0.06496934     0.00300
C1061       C  0.39827010  0.63473151  0.10418723    -0.11400
C1062       C  0.41920957  0.66477191  0.12730076     0.02500
H1063       H  0.00701509  0.74668773  0.06856772     0.15500
H1064       H  0.37633485  0.60915999  0.11663951     0.15500
C1065       C  0.41260740  0.66006016  0.16761236     0.37100
C1066       C  0.43322489  0.67898017  0.00867138     0.37000
N1067       N  0.40741708  0.65629539  0.19990691    -0.43200
N1068       N  0.00602571  0.72828607  0.97485850    -0.43200
C1069       C  0.31418260  0.52057843  0.22431039     0.00400
C1070       C  0.29262872  0.51351513  0.25750956    -0.11500
C1071       C  0.30833683  0.53153639  0.29073545     0.02600
C1072       C  0.34669329  0.55738535  0.29141205     0.00300
C1073       C  0.36907196  0.56213660  0.25918579    -0.11400
C1074       C  0.35322048  0.54379284  0.22572484     0.02500
H1075       H  0.26280818  0.49502801  0.25713853     0.15500
H1076       H  0.39839555  0.58253389  0.25917244     0.15500
C1077       C  0.37743190  0.55195799  0.19296252     0.37100
C1078       C  0.28345785  0.52591949  0.32248158     0.37000
N1079       N  0.39996840  0.05966272  0.16201130    -0.43200
N1080       N  0.26287910  0.52188813  0.34714858    -0.43200
N1081       N  0.38906871  0.60082765  0.67490630    -0.02900
C1082       C  0.35858399  0.58951831  0.65315345    -0.00300
C1083       C  0.33798670  0.60725293  0.66214725    -0.23200
C1084       C  0.36364833  0.63325951  0.35287010    -0.23400
C1085       C  0.39362006  0.62753535  0.36069467    -0.00400
H1086       H  0.31321614  0.60432861  0.64851421     0.13300
H1087       H  0.35770520  0.65446518  0.36437391     0.13400
N1088       N  0.08985611  0.70181026  0.66327461    -0.02900
C1089       C  0.08254351  0.72762113  0.64615195    -0.00300
C1090       C  0.09370943  0.75878644  0.66819793    -0.23200
C1091       C  0.08590631  0.74305910  0.38084325    -0.23400
C1092       C  0.08986022  0.71168565  0.37455627    -0.00400
H1093       H  0.09162807  0.78371592  0.66169124     0.13300
H1094       H  0.09454543  0.76067605  0.40526163     0.13400
N1095       N  0.19185043  0.60722180  0.35451919    -0.02900
C1096       C  0.21492105  0.59969602  0.37612237    -0.00300
C1097       C  0.25180956  0.62131766  0.36515632    -0.23200
C1098       C  0.25631058  0.63829165  0.67464579    -0.23400
C1099       C  0.22074706  0.62949960  0.66427178    -0.00400
H1100       H  0.27588908  0.62095272  0.37712824     0.13300
H1101       H  0.28190970  0.65671726  0.65973805     0.13400
N1102       N  0.10099983  0.91265963  0.64799547    -0.02900
C1103       C  0.12865783  0.91393999  0.62489244    -0.00300
C1104       C  0.14186646  0.89049951  0.63814492    -0.23200
C1105       C  0.12937776  0.88032643  0.35656948    -0.23400
C1106       C  0.10027318  0.88844211  0.35478958    -0.00400
H1107       H  0.16352155  0.88571704  0.62533958     0.13300
H1108       H  0.13271496  0.86227267  0.37691814     0.13400
N1109       N  0.41448254  0.81850288  0.67167496    -0.02900
C1110       C  0.42554136  0.80174621  0.64496110    -0.00300
C1111       C  0.43427873  0.77609335  0.66092288    -0.23200
C1112       C  0.42497610  0.77424363  0.38491570    -0.23400
C1113       C  0.41114040  0.79942179  0.38261598    -0.00400
H1114       H  0.44351970  0.75856288  0.64638902     0.13300
H1115       H  0.42010741  0.75468707  0.40785295     0.13400
N1116       N  0.31019247  0.92112488  0.62475748    -0.02900
C1117       C  0.29196372  0.92377623  0.32440806    -0.00300
C1118       C  0.26284030  0.92748871  0.30992374    -0.23200
C1119       C  0.26387698  0.92153889  0.59190902    -0.23400
C1120       C  0.29332965  0.91339351  0.59091978    -0.00400
H1121       H  0.24258603  0.93248888  0.32543478     0.13300
H1122       H  0.24285044  0.91439991  0.57076602     0.13400
O1123       O  0.45967086  0.95071192  0.63089480    -0.87800
C1124       C  0.43629630  0.49912427  0.37905121     0.88200
Mg1125     Mg  0.50430527  0.93679812  0.63879899     1.58100
O1126       O  0.48215996  0.56064705  0.63333914    -0.87500
O1127       O  0.44720758  0.98611013  0.59344365    -0.74900
C1128       C  0.15146485  0.58596090  0.35328143     0.93300
O1129       O  0.47010215  0.94019188  0.38302109    -0.74700
O1130       O  0.13562686  0.55070750  0.35893016    -0.82200
Mg1131     Mg  0.42176204  0.92999033  0.34390275     1.58000
C1132       C  0.07205848  0.66206055  0.65730907     0.93200
O1133       O  0.36532576  0.91985104  0.64114341    -0.80400
H1134       H  0.48525674  0.57519817  0.57897188    -0.05800
C1135       C  0.04567603  0.56157071  0.39389255     0.88100
O1136       O  0.03563061  0.98163807  0.60295134    -0.75000
O1137       O  0.43615127  0.98825605  0.34490101    -0.87700
O1138       O  0.03695641  0.64308946  0.66387384    -0.80500
C1139       C  0.41832122  0.58294777  0.33974074     0.93300
C1140       C  0.34996470  0.93864865  0.62865191     0.93200
Mg1141     Mg  0.08106764  0.58613360  0.64171411     1.58000
O1142       O  0.13265508  0.60236950  0.34415435    -0.80500
O1143       O  0.03555958  0.57936870  0.60066085    -0.74700
O1144       O  0.40700956  0.55061554  0.32591041    -0.80500
O1145       O  0.40709139  0.86732624  0.34498687    -0.82200
O1146       O  0.09403796  0.96647928  0.65587103    -0.80600
C1147       C  0.00095017  0.56920481  0.60298081     0.87600
O1148       O  0.06866567  0.52768692  0.63581925    -0.87700
O1149       O  0.03777171  0.56861537  0.36251178    -0.87800
O1150       O  0.05807816  0.53850879  0.39816447    -0.74900
Mg1151     Mg  0.42564529  0.51697823  0.62866496     1.58000
O1152       O  0.45205549  0.60204323  0.35013360    -0.82200
H1153       H  0.46335909  0.94890252  0.57480461    -0.06000
O1154       O  0.01773103  0.95822923  0.35550709    -0.87500
H1155       H  0.01610178  0.94781127  0.41084218    -0.05800
H1156       H  0.08175450  0.53203437  0.58076671    -0.06000
C1157       C  0.50473287  0.95035747  0.37963772     0.87600
C1158       C  0.45660491  0.96089042  0.59886595     0.88200
C1159       C  0.06530163  0.51424790  0.60408231     0.88200
H1160       H  0.04132375  0.57482193  0.41834903    -0.06000
O1161       O  0.45887298  0.53275092  0.38636923    -0.75000
Mg1162     Mg  0.07463787  0.50323114  0.35941795     1.58000
H1163       H  0.41944009  0.98267854  0.39893702    -0.06000
C1164       C  0.42949328  0.85396443  0.33976583     0.93200
O1165       O  0.04446976  0.91335508  0.64094055    -0.82200
C1166       C  0.07927381  0.93221546  0.64644914     0.93300
O1167       O  0.36805482  0.97379139  0.62350669    -0.82200
Mg1168     Mg  0.99077962  0.58045664  0.35868172     1.58200
O1169       O  0.46267215  0.87421740  0.32700528    -0.80500
O1170       O  0.09209377  0.64638156  0.65015878    -0.82200
C1171       C  0.01014382  0.74801219  0.51766511     0.87000
C1172       C  0.50714729  0.73156119  0.48393016    -0.53200
C1173       C  0.48296174  0.73867360  0.46465715     0.10000
C1174       C  0.48400330  0.77631894  0.47443666     0.20900
C1175       C  0.03133359  0.78181956  0.49060938    -0.53900
C1176       C  0.00877192  0.78996053  0.46864292     0.10100
C1177       C  0.50048579  0.76588900  0.53675611    -0.53500
C1178       C  0.47814989  0.77586002  0.51735910     0.10600
H1179       H  0.51040234  0.70694829  0.47902823     0.15100
H1180       H  0.46438051  0.78241629  0.45833859     0.00900
H1181       H  0.06133278  0.79702418  0.48675173     0.15400
H1182       H  0.50097359  0.76607439  0.56740516     0.15200
C1183       C  0.28424716  0.97525551  0.46434595     0.87000
C1184       C  0.31350279  0.50183138  0.49120875    -0.53200
C1185       C  0.30278785  0.52182018  0.51400192     0.10000
C1186       C  0.26257578  0.51518618  0.50764955     0.20900
C1187       C  0.24847628  0.95255545  0.48964094    -0.53900
C1188       C  0.23708862  0.97441812  0.50982545     0.10100
C1189       C  0.27134606  0.50191349  0.44355379    -0.53500
C1190       C  0.25892926  0.52075845  0.46579186     0.10600
H1191       H  0.33935245  0.50070995  0.49481059     0.15100
H1192       H  0.25521749  0.53346533  0.52465786     0.00900
H1193       H  0.23429035  0.92256685  0.49235701     0.15400
H1194       H  0.26969721  0.50212864  0.41316305     0.15200
C1195       C  0.20621529  0.72640590  0.47097004     0.87000
C1196       C  0.20276698  0.69980450  0.50308529    -0.53200
C1197       C  0.23260226  0.71244870  0.52623340     0.10000
C1198       C  0.26482158  0.75129206  0.51327460     0.20900
C1199       C  0.21558153  0.76346026  0.48987957    -0.53900
C1200       C  0.24632006  0.77664202  0.51163137     0.10100
C1201       C  0.24280185  0.73527293  0.44982246    -0.53500
C1202       C  0.27374382  0.74802441  0.47135565     0.09900
H1203       H  0.17727159  0.67390532  0.50832203     0.15100
H1204       H  0.28948480  0.76157171  0.53106983     0.00900
H1205       H  0.19960905  0.77826444  0.48609482     0.15400
H1206       H  0.24576524  0.73642545  0.41952229     0.15200
C1207       C  0.29736154  0.95495288  0.43677993     0.00400
C1208       C  0.27361448  0.91746930  0.42793963    -0.11500
C1209       C  0.27505139  0.90443653  0.39189111     0.02600
C1210       C  0.30078291  0.92884766  0.36464560     0.00300
C1211       C  0.32904223  0.96323476  0.37571857    -0.11400
C1212       C  0.32814775  0.97623481  0.41171894     0.02500
H1213       H  0.25135698  0.89923164  0.44701911     0.15500
H1214       H  0.34922418  0.98198380  0.35501242     0.15500
C1215       C  0.35355594  0.51701089  0.41752668     0.37100
C1216       C  0.24771615  0.86708671  0.38229319     0.37000
N1217       N  0.37611224  0.54714070  0.42343466    -0.43200
N1218       N  0.22597557  0.83708428  0.37470514    -0.43200
C1219       C  0.28578296  0.87883307  0.57139453     0.00400
C1220       C  0.25635549  0.84564404  0.58630246    -0.11500
C1221       C  0.24256423  0.81267121  0.56640636     0.02600
C1222       C  0.25967041  0.81181164  0.53205510     0.00300
C1223       C  0.28884681  0.84489923  0.51668791    -0.11400
C1224       C  0.30198852  0.87851583  0.53614503     0.02500
H1225       H  0.24284768  0.84600630  0.61282973     0.15500
H1226       H  0.30095908  0.84452667  0.48934395     0.15500
C1227       C  0.33159236  0.91216235  0.51944271     0.37100
C1228       C  0.21014433  0.78023573  0.58120099     0.37000
N1229       N  0.35552380  0.93903916  0.50604804    -0.43200
N1230       N  0.18385271  0.75429877  0.59268815    -0.43200
C1231       C  0.37613185  0.78925554  0.40430590     0.00400
C1232       C  0.37669729  0.80681632  0.43826142    -0.11500
C1233       C  0.34485621  0.79312103  0.46237821     0.02600
C1234       C  0.31139463  0.76121509  0.45222719     0.00300
C1235       C  0.31238995  0.74260393  0.41930153    -0.11400
C1236       C  0.34367612  0.75634296  0.39543480     0.02500
H1237       H  0.40240880  0.83064185  0.44646229     0.15500
H1238       H  0.28829756  0.71681397  0.41179601     0.15500
C1239       C  0.34258410  0.73434587  0.36330328     0.37100
C1240       C  0.34866032  0.81185670  0.49752151     0.37000
N1241       N  0.34589088  0.71135687  0.66707239    -0.43200
N1242       N  0.35321257  0.82713434  0.52584059    -0.43200
C1243       C  0.43140644  0.81040708  0.60396815     0.00400
C1244       C  0.46800095  0.83462989  0.59216819    -0.11500
C1245       C  0.48328606  0.82685160  0.56012377     0.02600
C1246       C  0.46093910  0.79571402  0.53790085     0.00300
C1247       C  0.42250080  0.77696853  0.54500611    -0.11400
C1248       C  0.40761695  0.78374368  0.57821161     0.02500
H1249       H  0.48661565  0.85527895  0.61140948     0.15500
H1250       H  0.40494663  0.75366501  0.52763844     0.15500
C1251       C  0.36893343  0.75932953  0.58737800     0.37100
C1252       C  0.97583886  0.84697276  0.52596856     0.37000
N1253       N  0.33773906  0.73906701  0.59344977    -0.43200
N1254       N  0.99219149  0.87246832  0.50606875    -0.43200
C1255       C  0.06800163  0.87020838  0.38099819     0.00400
C1256       C  0.07366355  0.88105982  0.41864708    -0.11500
C1257       C  0.05243537  0.85621323  0.44765210     0.02600
C1258       C  0.02476628  0.81986292  0.43915066     0.00300
C1259       C  0.01697027  0.81027990  0.40132510    -0.11400
C1260       C  0.03826488  0.83512955  0.37219482     0.02500
H1261       H  0.09702713  0.90768817  0.42556708     0.15500
H1262       H  0.50317439  0.78299748  0.40000886     0.15500
C1263       C  0.03224765  0.82238114  0.33381381     0.37100
C1264       C  0.06096816  0.86792320  0.48601188     0.37000
N1265       N  0.53117474  0.78141676  0.31154252    -0.43200
N1266       N  0.06699582  0.87724579  0.51691124    -0.43200
C1267       C  0.14386490  0.93458484  0.58925722     0.00400
C1268       C  0.14199939  0.91305548  0.55783085    -0.11500
C1269       C  0.17017719  0.92627258  0.52978075     0.02600
C1270       C  0.20245152  0.96094959  0.53432822     0.00300
C1271       C  0.20160233  0.98395952  0.56351622    -0.11400
C1272       C  0.17260133  0.97131139  0.59031891     0.02500
H1273       H  0.12051128  0.88420419  0.55736413     0.15500
H1274       H  0.22854523  0.50677383  0.57563246     0.15500
C1275       C  0.17585624  0.99518824  0.62126984     0.37100
C1276       C  0.16474703  0.90352072  0.49712606     0.37000
N1277       N  0.18924702  0.50514241  0.65963361    -0.43200
N1278       N  0.15992048  0.88518979  0.47092631    -0.43200
C1279       C  0.20578365  0.57432976  0.40902106     0.00400
C1280       C  0.19437307  0.53678089  0.40188517    -0.11500
C1281       C  0.20800018  0.51719383  0.42340009     0.02600
C1282       C  0.23500408  0.53605119  0.45092717     0.00300
C1283       C  0.24078039  0.57103159  0.46247608    -0.11400
C1284       C  0.22532031  0.58978789  0.44238549     0.02500
H1285       H  0.17879348  0.52406187  0.37693863     0.15500
H1286       H  0.25981405  0.58503719  0.48498092     0.15500
C1287       C  0.23551926  0.62758514  0.45241783     0.37100
C1288       C  0.19539346  0.47840643  0.41562442     0.37000
N1289       N  0.24400934  0.65795388  0.46040903    -0.43200
N1290       N  0.19399166  0.94896154  0.39875439    -0.43200
C1291       C  0.23001733  0.69143674  0.56235952     0.00400
C1292       C  0.20897159  0.65201565  0.56312886    -0.11500
C1293       C  0.20223966  0.63089726  0.59668052     0.02600
C1294       C  0.21629463  0.64896475  0.63078003     0.00300
C1295       C  0.23770170  0.68802439  0.63004784    -0.11400
C1296       C  0.24479239  0.70922352  0.59678185     0.02500
H1297       H  0.19834000  0.63731887  0.53715314     0.15500
H1298       H  0.25016936  0.70212385  0.65591725     0.15500
C1299       C  0.26801357  0.74888059  0.59994878     0.37100
C1300       C  0.18315907  0.59076985  0.59488525     0.37000
N1301       N  0.28766509  0.78035788  0.60389429    -0.43200
N1302       N  0.16792525  0.55859154  0.59335997    -0.43200
C1303       C  0.17116071  0.71157530  0.44723708     0.00400
C1304       C  0.17265658  0.70412320  0.40871226    -0.11500
C1305       C  0.14553392  0.70227875  0.38440859     0.02600
C1306       C  0.11325335  0.70239216  0.39900413     0.00300
C1307       C  0.10823863  0.70254766  0.43821007    -0.11400
C1308       C  0.13683840  0.70725825  0.46240351     0.02500
H1309       H  0.19575321  0.70184874  0.39619628     0.15500
H1310       H  0.08313390  0.70203205  0.44972645     0.15500
C1311       C  0.13054821  0.70894271  0.50235978     0.37100
C1312       C  0.15459985  0.70604264  0.34462069     0.37000
N1313       N  0.12502003  0.70977067  0.53434282    -0.43200
N1314       N  0.16870859  0.69281959  0.64061692    -0.43200
C1315       C  0.03255077  0.73744896  0.54488190     0.00400
C1316       C  0.06985526  0.76290102  0.55209080    -0.11500
C1317       C  0.08788589  0.75806324  0.58298211     0.02600
C1318       C  0.06891385  0.72684189  0.60760752     0.00300
C1319       C  0.03314520  0.69957202  0.59865269    -0.11400
C1320       C  0.01480954  0.70457054  0.56794417     0.02500
H1321       H  0.08463439  0.78852713  0.53599906     0.15500
H1322       H  0.01791719  0.67598717  0.61756233     0.15500
C1323       C  0.49323146  0.68537521  0.55110769     0.37100
C1324       C  0.12475605  0.78779485  0.59059356     0.37000
N1325       N  0.46312164  0.66291483  0.54496361    -0.43200
N1326       N  0.15384157  0.81227692  0.59671386    -0.43200
C1327       C  0.45946053  0.71114840  0.43704004     0.00400
C1328       C  0.47564776  0.70882261  0.40245782    -0.11500
C1329       C  0.45566281  0.68017219  0.37742365     0.02600
C1330       C  0.42043228  0.65111757  0.38859839     0.00300
C1331       C  0.40540454  0.65226627  0.42427259    -0.11400
C1332       C  0.42431294  0.68214125  0.44821513     0.02500
H1333       H  0.97953037  0.71921630  0.39704413     0.15500
H1334       H  0.37761273  0.63073560  0.43244776     0.15500
C1335       C  0.40756344  0.68199546  0.48450367     0.37100
C1336       C  0.47036418  0.68298957  0.33950738     0.37000
N1337       N  0.39420297  0.68161308  0.51367549    -0.43200
N1338       N  0.95314203  0.67463068  0.31151819    -0.43200
C1339       C  0.32169296  0.53602252  0.54980975     0.00400
C1340       C  0.30240198  0.51824270  0.58312168    -0.11500
C1341       C  0.31563450  0.53367717  0.61791869     0.02600
C1342       C  0.35003004  0.56626136  0.61976697     0.00300
C1343       C  0.37176394  0.58153234  0.58681452    -0.11400
C1344       C  0.35772585  0.56657027  0.55168642     0.02500
H1345       H  0.27620678  0.49295574  0.58191180     0.15500
H1346       H  0.39825858  0.60676473  0.58828088     0.15500
C1347       C  0.38002033  0.58378137  0.51818264     0.37100
C1348       C  0.29183794  0.51758519  0.65083804     0.37000
N1349       N  0.40269813  0.09027683  0.49687037    -0.43200
N1350       N  0.27215707  0.50470495  0.67683811    -0.43200
N1351       N  0.38009315  0.58877909  0.01436772    -0.02900
C1352       C  0.34746143  0.57402296  0.99555019    -0.00300
C1353       C  0.32305865  0.58519103  0.01104905    -0.23200
C1354       C  0.35611272  0.63081153  0.69042017    -0.23400
C1355       C  0.38719928  0.62670274  0.69768463    -0.00400
H1356       H  0.29593914  0.57924468  0.00090357     0.13300
H1357       H  0.34792586  0.64956880  0.70405829     0.13400
N1358       N  0.10279532  0.70882787  0.98898263    -0.02900
C1359       C  0.09836805  0.73546853  0.96977207    -0.00300
C1360       C  0.10835446  0.76670075  0.99151716    -0.23200
C1361       C  0.10939017  0.75292861  0.69934385    -0.23400
C1362       C  0.10690062  0.71813152  0.69578105    -0.00400
H1363       H  0.10721099  0.79191076  0.98393475     0.13300
H1364       H  0.12238510  0.77249704  0.72171127     0.13400
N1365       N  0.19458058  0.60364287  0.68875023    -0.02900
C1366       C  0.21551309  0.59805050  0.71535599    -0.00300
C1367       C  0.25316653  0.61878524  0.70667471    -0.23200
C1368       C  0.26211824  0.65159188  0.02006307    -0.23400
C1369       C  0.22776914  0.63783844  0.00361407    -0.00400
H1370       H  0.27609423  0.61914987  0.72193587     0.13300
H1371       H  0.28827728  0.67373866  0.00963625     0.13400
N1372       N  0.10568618  0.91237859  0.99326972    -0.02900
C1373       C  0.13115509  0.90884689  0.97079591    -0.00300
C1374       C  0.14526992  0.88813048  0.98860736    -0.23200
C1375       C  0.12162837  0.87356818  0.67000805    -0.23400
C1376       C  0.09685559  0.88730882  0.67516087    -0.00400
H1377       H  0.16584602  0.88087911  0.97743325     0.13300
H1378       H  0.12385281  0.85261763  0.68707165     0.13400
N1379       N  0.41293514  0.81623518  0.01742075    -0.02900
C1380       C  0.42521289  0.79964223  0.99172907    -0.00300
C1381       C  0.43889948  0.77851183  0.00909484    -0.23200
C1382       C  0.42756760  0.77599418  0.69872654    -0.23400
C1383       C  0.41285545  0.80009717  0.70453572    -0.00400
H1384       H  0.44933838  0.76148045  0.99557441     0.13300
H1385       H  0.42670991  0.75533667  0.71864149     0.13400
N1386       N  0.30893261  0.91596966  0.95692484    -0.02900
C1387       C  0.28918894  0.93086689  0.64745756    -0.00300
C1388       C  0.26049683  0.93128017  0.62799587    -0.23200
C1389       C  0.26316803  0.91524043  0.92219159    -0.23400
C1390       C  0.29369260  0.90873168  0.92236497    -0.00400
H1391       H  0.23821328  0.93589012  0.63932484     0.13300
H1392       H  0.24307291  0.90800005  0.90007628     0.13400
O1393       O  0.45668309  0.94559494  0.96756935    -0.87800
C1394       C  0.43267918  0.50166040  0.71108254     0.88200
Mg1395     Mg  0.50129446  0.93206756  0.97676231     1.58100
O1396       O  0.47940271  0.55597710  0.97019325    -0.87500
O1397       O  0.44514623  0.98104743  0.92908765    -0.74900
C1398       C  0.15438521  0.58321341  0.68412631     0.93300
O1399       O  0.46319927  0.94236751  0.72021527    -0.74700
O1400       O  0.13757856  0.54780893  0.68843825    -0.82200
Mg1401     Mg  0.41818829  0.93355401  0.67673993     1.58000
C1402       C  0.08450510  0.66894656  0.98385844     0.93200
O1403       O  0.36336705  0.91572243  0.97767990    -0.80400
H1404       H  0.48288206  0.57032724  0.91570662    -0.05800
C1405       C  0.04866829  0.56120405  0.72081611     0.88100
O1406       O  0.04934359  0.98489643  0.93348152    -0.75000
O1407       O  0.43076997  0.99162448  0.68117405    -0.87700
O1408       O  0.04970929  0.65063279  0.99163245    -0.80500
C1409       C  0.41528777  0.58601561  0.67311172     0.93300
C1410       C  0.34836257  0.93391852  0.96287172     0.93200
Mg1411     Mg  0.09031339  0.59103637  0.97285721     1.58000
O1412       O  0.13681365  0.60055083  0.67341399    -0.80500
O1413       O  0.04569499  0.58411982  0.93079713    -0.74700
O1414       O  0.40428303  0.55398324  0.65854256    -0.80500
O1415       O  0.40505240  0.87153391  0.67242216    -0.82200
O1416       O  0.10018113  0.96706523  0.99705966    -0.80600
C1417       C  0.01135189  0.57491010  0.93339457     0.87600
O1418       O  0.07575835  0.53191106  0.97022134    -0.87700
O1419       O  0.04170543  0.56951877  0.68953648    -0.87800
O1420       O  0.06001483  0.53724048  0.72471615    -0.74900
Mg1421     Mg  0.42385625  0.51208763  0.96481917     1.58000
O1422       O  0.44888693  0.60528368  0.68366562    -0.82200
H1423       H  0.46104610  0.94332270  0.91159545    -0.06000
O1424       O  0.01442264  0.95828788  0.68916723    -0.87500
H1425       H  0.01275976  0.94664323  0.74422909    -0.05800
H1426       H  0.08843486  0.53368649  0.91527535    -0.06000
C1427       C  0.49825358  0.95426023  0.72028330     0.87600
C1428       C  0.45410087  0.95560761  0.93527288     0.88200
C1429       C  0.07172504  0.51710729  0.93910633     0.88200
H1430       H  0.04434718  0.57412786  0.74555672    -0.06000
O1431       O  0.45515867  0.53528577  0.71873776    -0.75000
Mg1432     Mg  0.07616655  0.50151928  0.68610294     1.58000
H1433       H  0.41274673  0.98329738  0.73490323    -0.06000
C1434       C  0.42778554  0.85827787  0.67004806     0.93200
O1435       O  0.05158355  0.91549179  0.97747537    -0.82200
C1436       C  0.08537940  0.93294962  0.98739731     0.93300
O1437       O  0.36628157  0.96894329  0.95707968    -0.82200
Mg1438     Mg  0.99581401  0.58356880  0.68663242     1.58200
O1439       O  0.46270854  0.87937317  0.66450600    -0.80500
O1440       O  0.10394643  0.65252285  0.97737220    -0.82200
C1441       C  0.02243125  0.75461414  0.84580370     0.87000
C1442       C  0.48684526  0.72457935  0.83121260    -0.53200
C1443       C  0.46554140  0.73320690  0.80866357     0.10000
C1444       C  0.46874196  0.77212440  0.81547071     0.20900
C1445       C  0.04208713  0.78767468  0.81763189    -0.53900
C1446       C  0.01816147  0.79525390  0.79723163     0.10100
C1447       C  0.48051717  0.76270599  0.88037227    -0.53500
C1448       C  0.46011544  0.77281872  0.85774132     0.10600
H1449       H  0.48861548  0.69892190  0.82836342     0.15100
H1450       H  0.45142073  0.77931445  0.79680219     0.00900
H1451       H  0.07187367  0.80252524  0.81199020     0.15400
H1452       H  0.47826223  0.76274281  0.91096583     0.15200
C1453       C  0.27847404  0.97504077  0.79595888     0.87000
C1454       C  0.30824090  0.49373651  0.82608338    -0.53200
C1455       C  0.29785616  0.51312014  0.85029083     0.10000
C1456       C  0.25845849  0.50831553  0.84332790     0.20900
C1457       C  0.24449246  0.94997122  0.82245860    -0.53900
C1458       C  0.23221940  0.96934330  0.84560049     0.10100
C1459       C  0.26737932  0.49758511  0.77854518    -0.53500
C1460       C  0.25579314  0.51614620  0.80196504     0.10600
H1461       H  0.33348904  0.49146260  0.82944325     0.15100
H1462       H  0.25225584  0.52714593  0.86061613     0.00900
H1463       H  0.23390500  0.92031425  0.82467930     0.15400
H1464       H  0.26537205  0.49900615  0.74826531     0.15200
C1465       C  0.21408394  0.72479294  0.80005531     0.87000
C1466       C  0.20922501  0.69970524  0.83444652    -0.53200
C1467       C  0.23918526  0.71250303  0.85774834     0.10000
C1468       C  0.27243894  0.74988762  0.84288577     0.20900
C1469       C  0.22520011  0.76334454  0.81643387    -0.53900
C1470       C  0.25559055  0.77643435  0.83869275     0.10100
C1471       C  0.25024919  0.73080438  0.77999812    -0.53500
C1472       C  0.28105132  0.74387705  0.80178656     0.09900
H1473       H  0.18305323  0.67483458  0.84073083     0.15100
H1474       H  0.29726584  0.76039596  0.86036470     0.00900
H1475       H  0.21000326  0.77875801  0.81151890     0.15400
H1476       H  0.25315902  0.73008610  0.74976899     0.15200
C1477       C  0.28999716  0.95644520  0.76464483     0.00400
C1478       C  0.26303955  0.92171214  0.75118131    -0.11500
C1479       C  0.26407353  0.91162998  0.71371482     0.02600
C1480       C  0.29290561  0.93588907  0.68881180     0.00300
C1481       C  0.32219949  0.96816366  0.70298372    -0.11400
C1482       C  0.32117255  0.97861135  0.74032514     0.02500
H1483       H  0.23862734  0.90382027  0.76809677     0.15500
H1484       H  0.34420970  0.98725993  0.68403476     0.15500
C1485       C  0.34900012  0.51115919  0.75214099     0.37100
C1486       C  0.23340273  0.87758086  0.70061696     0.37000
N1487       N  0.37187503  0.54071926  0.75954477    -0.43200
N1488       N  0.20870968  0.85045370  0.69011093    -0.43200
C1489       C  0.28909273  0.87558354  0.90211156     0.00400
C1490       C  0.26026703  0.84132442  0.91542819    -0.11500
C1491       C  0.24860433  0.80938763  0.89429047     0.02600
C1492       C  0.26754659  0.81061819  0.86046809     0.00300
C1493       C  0.29676682  0.84471258  0.84705128    -0.11400
C1494       C  0.30751725  0.87740407  0.86764729     0.02500
H1495       H  0.24526616  0.84008407  0.94146145     0.15500
H1496       H  0.31044896  0.84591805  0.82020536     0.15500
C1497       C  0.33661921  0.91241204  0.85279403     0.37100
C1498       C  0.21579072  0.77609844  0.90677450     0.37000
N1499       N  0.36000618  0.94055506  0.84104574    -0.43200
N1500       N  0.18895526  0.74962448  0.91617967    -0.43200
C1501       C  0.38012943  0.78626913  0.73088787     0.00400
C1502       C  0.38159545  0.80488283  0.76432660    -0.11500
C1503       C  0.35139041  0.79021172  0.79059035     0.02600
C1504       C  0.31865586  0.75645670  0.78294457     0.00300
C1505       C  0.31953005  0.73633407  0.75131047    -0.11400
C1506       C  0.34895198  0.75109669  0.72513123     0.02500
H1507       H  0.40652709  0.83063576  0.77013409     0.15500
H1508       H  0.29605217  0.70929338  0.74590150     0.15500
C1509       C  0.34664248  0.72897843  0.69272439     0.37100
C1510       C  0.35613193  0.80991435  0.82524666     0.37000
N1511       N  0.35875137  0.69873002  0.04054924    -0.43200
N1512       N  0.36150486  0.82591371  0.85318813    -0.43200
C1513       C  0.42140114  0.79996973  0.95014379     0.00400
C1514       C  0.44853179  0.82948183  0.92827953    -0.11500
C1515       C  0.45527044  0.82385135  0.89055597     0.02600
C1516       C  0.43691567  0.78773574  0.87557591     0.00300
C1517       C  0.40476474  0.76119274  0.89445007    -0.11400
C1518       C  0.39704519  0.76690701  0.93167079     0.02500
H1519       H  0.46658349  0.85576509  0.94117691     0.15500
H1520       H  0.38927033  0.73374850  0.88257093     0.15500
C1521       C  0.36617209  0.73660049  0.95101229     0.37100
C1522       C  0.99392453  0.85361395  0.86170086     0.37000
N1523       N  0.34075526  0.71140675  0.96481813    -0.43200
N1524       N  0.01474062  0.87984819  0.84474583    -0.43200
C1525       C  0.06794032  0.87193851  0.70496673     0.00400
C1526       C  0.07893309  0.88417657  0.74152484    -0.11500
C1527       C  0.06165013  0.86043302  0.77250102     0.02600
C1528       C  0.03178204  0.82435061  0.76702299     0.00300
C1529       C  0.01817342  0.81402428  0.73069564    -0.11400
C1530       C  0.03633685  0.83725545  0.69956693     0.02500
H1531       H  0.10373681  0.91057713  0.74556558     0.15500
H1532       H  0.49176540  0.79469668  0.74017190     0.15500
C1533       C  0.02575643  0.82289030  0.66211806     0.37100
C1534       C  0.07696255  0.87280695  0.80912810     0.37000
N1535       N  0.52130681  0.82056284  0.64816443    -0.43200
N1536       N  0.08902481  0.88273361  0.83859655    -0.43200
C1537       C  0.14590956  0.92588174  0.93367053     0.00400
C1538       C  0.14518218  0.90220861  0.90484283    -0.11500
C1539       C  0.17143351  0.91522846  0.87487490     0.02600
C1540       C  0.19965320  0.95311190  0.87358147     0.00300
C1541       C  0.19723375  0.97691761  0.90112067    -0.11400
C1542       C  0.17142178  0.96374672  0.93089139     0.02500
H1543       H  0.12569458  0.87264144  0.90737135     0.15500
H1544       H  0.22249177  0.50079122  0.90827994     0.15500
C1545       C  0.17594402  0.98900512  0.96100002     0.37100
C1546       C  0.16823453  0.88830966  0.84707490     0.37000
N1547       N  0.18458477  0.50258251  0.99059201    -0.43200
N1548       N  0.16490578  0.86600486  0.82529615    -0.43200
C1549       C  0.20395579  0.57310216  0.74921398     0.00400
C1550       C  0.18955402  0.53487570  0.74323413    -0.11500
C1551       C  0.20360762  0.51441574  0.76270902     0.02600
C1552       C  0.23242339  0.53261749  0.78865591     0.00300
C1553       C  0.24006147  0.56793266  0.80077977    -0.11400
C1554       C  0.22491643  0.58776257  0.78210315     0.02500
H1555       H  0.17089071  0.52180791  0.72056369     0.15500
H1556       H  0.26031066  0.58133194  0.82250782     0.15500
C1557       C  0.23761195  0.62583915  0.79258478     0.37100
C1558       C  0.18903118  0.47534893  0.75457473     0.37000
N1559       N  0.24869918  0.65639020  0.80147845    -0.43200
N1560       N  0.18324243  0.94921713  0.73528405    -0.43200
C1561       C  0.23667850  0.69336488  0.89543569     0.00400
C1562       C  0.21392546  0.65422464  0.89935235    -0.11500
C1563       C  0.20864799  0.63510764  0.93422266     0.02600
C1564       C  0.22509792  0.65512564  0.96695402     0.00300
C1565       C  0.24780303  0.69397970  0.96293699    -0.11400
C1566       C  0.25438310  0.71291630  0.92826355     0.02500
H1567       H  0.20109384  0.63802210  0.87470624     0.15500
H1568       H  0.26123716  0.71005177  0.98755056     0.15500
C1569       C  0.27997909  0.75230298  0.92868951     0.37100
C1570       C  0.18879786  0.59495044  0.93470873     0.37000
N1571       N  0.30139213  0.78359151  0.93049836    -0.43200
N1572       N  0.17299960  0.56271436  0.93471913    -0.43200
C1573       C  0.17956501  0.71050269  0.77511840     0.00400
C1574       C  0.18080312  0.69963784  0.73761572    -0.11500
C1575       C  0.15537518  0.69873623  0.71126339     0.02600
C1576       C  0.12550157  0.70479246  0.72277119     0.00300
C1577       C  0.12002465  0.70821336  0.76138882    -0.11400
C1578       C  0.14646676  0.71084533  0.78754361     0.02500
H1579       H  0.20241475  0.69350159  0.72758875     0.15500
H1580       H  0.09654269  0.71198567  0.77074384     0.15500
C1581       C  0.13943865  0.71556284  0.82654321     0.37100
C1582       C  0.16322226  0.69578754  0.67213873     0.37000
N1583       N  0.13295106  0.71882849  0.85771244    -0.43200
N1584       N  0.18033739  0.69906012  0.97313018    -0.43200
C1585       C  0.04622987  0.74447610  0.87121780     0.00400
C1586       C  0.08354911  0.77061625  0.87737200    -0.11500
C1587       C  0.10295916  0.76587491  0.90700213     0.02600
C1588       C  0.08535528  0.73406667  0.93105943     0.00300
C1589       C  0.05016766  0.70586344  0.92224457    -0.11400
C1590       C  0.03002082  0.71114821  0.89372385     0.02500
H1591       H  0.09705914  0.79667038  0.86175576     0.15500
H1592       H  0.03599949  0.68181226  0.94075212     0.15500
C1593       C  0.46905786  0.68075580  0.90108052     0.37100
C1594       C  0.13970676  0.79605166  0.91417021     0.37000
N1595       N  0.43882713  0.65883097  0.89467851    -0.43200
N1596       N  0.16871894  0.82072682  0.92011876    -0.43200
C1597       C  0.44446243  0.70682069  0.77929577     0.00400
C1598       C  0.46197527  0.70991282  0.74405277    -0.11500
C1599       C  0.44578142  0.68171689  0.71755309     0.02600
C1600       C  0.41255188  0.64906274  0.72706731     0.00300
C1601       C  0.39622380  0.64534279  0.76310391    -0.11400
C1602       C  0.41151006  0.67404526  0.78892425     0.02500
H1603       H  0.98025474  0.72482051  0.72599647     0.15500
H1604       H  0.36975642  0.62100172  0.76999096     0.15500
C1605       C  0.39228553  0.66961337  0.82472578     0.37100
C1606       C  0.46226265  0.68801140  0.68010071     0.37000
N1607       N  0.37641988  0.66573266  0.85318086    -0.43200
N1608       N  0.94868433  0.67724470  0.64324764    -0.43200
C1609       C  0.31530977  0.52494576  0.88758371     0.00400
C1610       C  0.29358962  0.50689472  0.91975850    -0.11500
C1611       C  0.30451195  0.52130651  0.95551713     0.02600
C1612       C  0.33929028  0.55310371  0.95998334     0.00300
C1613       C  0.36327459  0.56859309  0.92832415    -0.11400
C1614       C  0.35140223  0.55482987  0.89208190     0.02500
H1615       H  0.26719283  0.48215509  0.91685414     0.15500
H1616       H  0.39011510  0.59298860  0.93158092     0.15500
C1617       C  0.37583129  0.57276716  0.85998075     0.37100
C1618       C  0.27832919  0.50459779  0.98676721     0.37000
N1619       N  0.39672181  0.08963634  0.83295195    -0.43200
N1620       N  0.25715181  0.49167946  0.01170202    -0.43200
N1621       N  0.87939475  0.08356171  0.34756888    -0.02900
C1622       C  0.84700305  0.06819745  0.32836226    -0.00300
C1623       C  0.82148001  0.07769973  0.34411712    -0.23200
C1624       C  0.89442608  0.16189231  0.98087512    -0.23400
C1625       C  0.91487467  0.14854548  0.00013211    -0.00400
H1626       H  0.79422331  0.07099955  0.33378091     0.13300
H1627       H  0.89575291  0.18883659  0.98385819     0.13400
N1628       N  0.59777956  0.20281350  0.32786460    -0.02900
C1629       C  0.59377586  0.23002947  0.30942931    -0.00300
C1630       C  0.60450154  0.26088602  0.33195985    -0.23200
C1631       C  0.60528182  0.25404586  0.04054191    -0.23400
C1632       C  0.60178959  0.21909474  0.03493619    -0.00400
H1633       H  0.60421038  0.28665551  0.32503002     0.13300
H1634       H  0.61814118  0.27214358  0.06401046     0.13400
N1635       N  0.69319948  0.11210513  0.02555304    -0.02900
C1636       C  0.71507567  0.10736464  0.05164720    -0.00300
C1637       C  0.75231501  0.13200955  0.04513916    -0.23200
C1638       C  0.75913888  0.14554409  0.34921442    -0.23400
C1639       C  0.72431899  0.13338256  0.33434392    -0.00400
H1640       H  0.77584580  0.13369353  0.06034779     0.13300
H1641       H  0.78527510  0.16752041  0.33833213     0.13400
N1642       N  0.60428618  0.40849431  0.31802379    -0.02900
C1643       C  0.63526462  0.41148485  0.29938067    -0.00300
C1644       C  0.65096869  0.39334116  0.31940579    -0.23200
C1645       C  0.62809976  0.37869955  0.01218392    -0.23400
C1646       C  0.60174326  0.39071417  0.01549542    -0.00400
H1647       H  0.67418145  0.38915498  0.31048586     0.13300
H1648       H  0.63140384  0.35924468  0.03063002     0.13400
N1649       N  0.91336965  0.30881369  0.34757141    -0.02900
C1650       C  0.92582963  0.29326791  0.32089636    -0.00300
C1651       C  0.93750976  0.26990160  0.33694615    -0.23200
C1652       C  0.92755659  0.27814445  0.04225794    -0.23400
C1653       C  0.91092924  0.30077799  0.04572281    -0.00400
H1654       H  0.94699925  0.25257983  0.32239528     0.13300
H1655       H  0.92757430  0.25905893  0.06358210     0.13400
N1656       N  0.80764419  0.40850196  0.30043979    -0.02900
C1657       C  0.79742322  0.44132523  0.97078544    -0.00300
C1658       C  0.77103473  0.44362896  0.94901791    -0.23200
C1659       C  0.75793564  0.40895633  0.27511884    -0.23400
C1660       C  0.78869347  0.40360865  0.26815591    -0.00400
H1661       H  0.74935482  0.45014525  0.95828742     0.13300
H1662       H  0.73555431  0.40325697  0.25608105     0.13400
O1663       O  0.95546238  0.43827071  0.30198168    -0.87800
C1664       C  0.93949391  0.00690434  0.04062755     0.88200
Mg1665     Mg  0.00086844  0.42619107  0.30842545     1.58100
O1666       O  0.97791124  0.05091610  0.30317455    -0.87500
O1667       O  0.94284162  0.47269055  0.26349000    -0.74900
C1668       C  0.65287813  0.09053036  0.02198209     0.93300
O1669       O  0.96854885  0.44398773  0.05049738    -0.74700
O1670       O  0.63658440  0.05546661  0.02899154    -0.82200
Mg1671     Mg  0.92258549  0.43541314  0.00791698     1.58000
C1672       C  0.57930195  0.16326033  0.32118244     0.93200
O1673       O  0.86300187  0.40832121  0.31647761    -0.80400
H1674       H  0.97958759  0.06410392  0.24856229    -0.05800
C1675       C  0.54658422  0.06844965  0.05978943     0.88100
O1676       O  0.54109002  0.47615850  0.26362794    -0.75000
O1677       O  0.93896649  0.49440892  0.00983770    -0.87700
O1678       O  0.54423337  0.14489645  0.32772983    -0.80500
C1679       C  0.92637785  0.09310546  0.99531133     0.93300
C1680       C  0.84742797  0.42609741  0.30212697     0.93200
Mg1681     Mg  0.58554124  0.08654315  0.30596584     1.58000
O1682       O  0.63448566  0.10662507  0.01020319    -0.80500
O1683       O  0.53988261  0.08020162  0.26497727    -0.74700
O1684       O  0.91290879  0.05944590  0.98435757    -0.80500
O1685       O  0.90575203  0.37208339  0.00712884    -0.82200
O1686       O  0.59694901  0.46233312  0.31809806    -0.80600
C1687       C  0.50525991  0.07003135  0.26764598     0.87600
O1688       O  0.57218053  0.02823814  0.30005649    -0.87700
O1689       O  0.53886027  0.07476863  0.02800931    -0.87800
O1690       O  0.55863371  0.04525902  0.06520154    -0.74900
Mg1691     Mg  0.92218761  0.00601224  0.29980613     1.58000
O1692       O  0.95972920  0.11080693  0.00685488    -0.82200
H1693       H  0.95712798  0.43381240  0.24606679    -0.06000
O1694       O  0.51862190  0.46308889  0.02248877    -0.87500
H1695       H  0.51528101  0.45357143  0.07814032    -0.05800
H1696       H  0.58288858  0.03272967  0.24450366    -0.06000
C1697       C  0.00350731  0.45494775  0.04983855     0.87600
C1698       C  0.95142727  0.44707246  0.26971139     0.88200
C1699       C  0.56711463  0.01497288  0.26812151     0.88200
H1700       H  0.54232592  0.08245666  0.08364593    -0.06000
O1701       O  0.96217882  0.04059746  0.04779684    -0.75000
Mg1702     Mg  0.57487407  0.00876506  0.02814279     1.58000
H1703       H  0.92368453  0.48945809  0.06427387    -0.06000
C1704       C  0.92713088  0.35713644  0.00699043     0.93200
O1705       O  0.54714294  0.40805781  0.30778918    -0.82200
C1706       C  0.58215720  0.42734695  0.31235630     0.93300
O1707       O  0.86517600  0.46078000  0.29449452    -0.82200
Mg1708     Mg  0.49242408  0.08783371  0.02404577     1.58200
O1709       O  0.96237735  0.37667932  0.00084240    -0.80500
O1710       O  0.59870249  0.14704124  0.31387827    -0.82200
C1711       C  0.52472184  0.25039071  0.18071983     0.87000
C1712       C  0.99125464  0.22438873  0.15589078    -0.53200
C1713       C  0.97004388  0.23378380  0.13385479     0.10000
C1714       C  0.97198559  0.27175141  0.14355138     0.20900
C1715       C  0.54517437  0.28394525  0.15330092    -0.53900
C1716       C  0.52215828  0.29445209  0.13503772     0.10100
C1717       C  0.98307312  0.25894261  0.20758329    -0.53500
C1718       C  0.96225801  0.26934833  0.18594426     0.10600
H1719       H  0.99459344  0.19984331  0.15090535     0.15100
H1720       H  0.95453452  0.27955043  0.12582203     0.00900
H1721       H  0.57476139  0.29678073  0.14657066     0.15400
H1722       H  0.98057306  0.25749914  0.23819686     0.15200
C1723       C  0.77872458  0.47795198  0.12091143     0.87000
C1724       C  0.81347595  0.99840033  0.15397007    -0.53200
C1725       C  0.80338177  0.01737231  0.17903510     0.10000
C1726       C  0.76575493  0.01630993  0.17057367     0.20900
C1727       C  0.74133801  0.45142908  0.14229234    -0.53900
C1728       C  0.73133464  0.46816341  0.17058978     0.10100
C1729       C  0.77830251  0.00975211  0.10550327    -0.53500
C1730       C  0.76584343  0.02730328  0.12940293     0.10600
H1731       H  0.83766015  0.99429376  0.15753558     0.15100
H1732       H  0.75971352  0.03436683  0.18938012     0.00900
H1733       H  0.72325852  0.42320170  0.13444334     0.15400
H1734       H  0.77869013  0.01355698  0.07513729     0.15200
C1735       C  0.70978164  0.22525959  0.13511979     0.87000
C1736       C  0.70486254  0.20047923  0.16964251    -0.53200
C1737       C  0.73412991  0.21401187  0.19376988     0.10000
C1738       C  0.76669896  0.25229468  0.17984230     0.20900
C1739       C  0.71875835  0.26335336  0.15129303    -0.53900
C1740       C  0.74842353  0.27739068  0.17442377     0.10100
C1741       C  0.74704043  0.23240210  0.11638036    -0.53500
C1742       C  0.77700646  0.24692166  0.13937385     0.09900
H1743       H  0.67921550  0.17479034  0.17498035     0.15100
H1744       H  0.79125810  0.26407146  0.19784367     0.00900
H1745       H  0.70246750  0.27755383  0.14585391     0.15400
H1746       H  0.75115426  0.22970240  0.08667011     0.15200
C1747       C  0.79115329  0.46307658  0.08707154     0.00400
C1748       C  0.76801847  0.42720387  0.07328989    -0.11500
C1749       C  0.77106471  0.41885041  0.03571126     0.02600
C1750       C  0.79878480  0.44586112  0.01181350     0.00300
C1751       C  0.82544204  0.47925090  0.02668749    -0.11400
C1752       C  0.82227746  0.48792281  0.06410314     0.02500
H1753       H  0.74577062  0.40609626  0.09032556     0.15500
H1754       H  0.84714351  0.49979593  0.00834610     0.15500
C1755       C  0.85637526  0.01951959  0.07945622     0.37100
C1756       C  0.74379199  0.38327518  0.02168611     0.37000
N1757       N  0.87930883  0.04867518  0.08792802    -0.43200
N1758       N  0.72169806  0.35479202  0.01071150    -0.43200
C1759       C  0.78205120  0.37237828  0.24357212     0.00400
C1760       C  0.75355466  0.33734095  0.25555023    -0.11500
C1761       C  0.74079928  0.30709079  0.23192918     0.02600
C1762       C  0.75830436  0.31072976  0.19671993     0.00300
C1763       C  0.78632657  0.34573005  0.18401643    -0.11400
C1764       C  0.79851505  0.37675376  0.20741365     0.02500
H1765       H  0.74003899  0.33408055  0.28300058     0.15500
H1766       H  0.79890669  0.34864580  0.15617199     0.15500
C1767       C  0.82812402  0.41220638  0.19420934     0.37100
C1768       C  0.70859256  0.27293177  0.24360989     0.37000
N1769       N  0.85224401  0.44040347  0.18353480    -0.43200
N1770       N  0.68209709  0.24580166  0.25224618    -0.43200
C1771       C  0.87793017  0.28672945  0.07221619     0.00400
C1772       C  0.87643193  0.30929457  0.10111973    -0.11500
C1773       C  0.84609837  0.29563912  0.12726936     0.02600
C1774       C  0.81532168  0.25965314  0.12283674     0.00300
C1775       C  0.81878365  0.23633616  0.09627762    -0.11400
C1776       C  0.84945309  0.24894297  0.07175285     0.02500
H1777       H  0.89950775  0.33713896  0.10399961     0.15500
H1778       H  0.79660274  0.20788369  0.09402870     0.15500
C1779       C  0.85089079  0.22111231  0.04801002     0.37100
C1780       C  0.84930192  0.31801742  0.15954766     0.37000
N1781       N  0.85544764  0.19039019  0.36394056    -0.43200
N1782       N  0.85395468  0.33603522  0.18595114    -0.43200
C1783       C  0.92228219  0.29522045  0.27940586     0.00400
C1784       C  0.95028414  0.32467779  0.25820370    -0.11500
C1785       C  0.95720957  0.31943936  0.22041437     0.02600
C1786       C  0.93898921  0.28347343  0.20514378     0.00300
C1787       C  0.90654961  0.25672237  0.22360682    -0.11400
C1788       C  0.89753065  0.26287207  0.26022993     0.02500
H1789       H  0.96857504  0.35059819  0.27156603     0.15500
H1790       H  0.89098924  0.22938133  0.21148242     0.15500
C1791       C  0.86397662  0.23457226  0.27822229     0.37100
C1792       C  0.51722718  0.34673179  0.22408586     0.37000
N1793       N  0.83621170  0.21187019  0.29136447    -0.43200
N1794       N  0.54719474  0.37049971  0.21877749    -0.43200
C1795       C  0.57279134  0.37545890  0.04545813     0.00400
C1796       C  0.58506087  0.38512349  0.08214045    -0.11500
C1797       C  0.56835622  0.35974784  0.11198789     0.02600
C1798       C  0.53668604  0.32499943  0.10599541     0.00300
C1799       C  0.52175863  0.31743668  0.06988220    -0.11400
C1800       C  0.53993153  0.34202281  0.03946089     0.02500
H1801       H  0.61094033  0.41033501  0.08661096     0.15500
H1802       H  0.99278246  0.29839218  0.07064112     0.15500
C1803       C  0.52794302  0.33017106  0.00164085     0.37100
C1804       C  0.58783618  0.36823220  0.14674960     0.37000
N1805       N  0.01885807  0.32420300  0.97791920    -0.43200
N1806       N  0.60488188  0.37487536  0.17382201    -0.43200
C1807       C  0.64823718  0.42400330  0.26016305     0.00400
C1808       C  0.65470689  0.39921644  0.23778095    -0.11500
C1809       C  0.68082256  0.41196423  0.20784891     0.02600
C1810       C  0.69760808  0.44996162  0.19648906     0.00300
C1811       C  0.68569557  0.47313044  0.21522051    -0.11400
C1812       C  0.66468945  0.46156103  0.24889877     0.02500
H1813       H  0.64246774  0.37015516  0.24653769     0.15500
H1814       H  0.72985404  0.00346502  0.23736745     0.15500
C1815       C  0.66793117  0.48985437  0.27482956     0.37100
C1816       C  0.69153958  0.38564150  0.19244423     0.37000
N1817       N  0.68742617  0.99618721  0.32102384    -0.43200
N1818       N  0.69992140  0.36413867  0.18077852    -0.43200
C1819       C  0.70539373  0.07864424  0.08164539     0.00400
C1820       C  0.69745398  0.04304372  0.06982208    -0.11500
C1821       C  0.71425611  0.02397643  0.08705823     0.02600
C1822       C  0.74009141  0.04121268  0.11614346     0.00300
C1823       C  0.74162683  0.07278302  0.13270341    -0.11400
C1824       C  0.72353747  0.09090900  0.11639641     0.02500
H1825       H  0.68255836  0.03229353  0.04415566     0.15500
H1826       H  0.75964454  0.08528508  0.15632513     0.15500
C1827       C  0.73191493  0.12679141  0.13083605     0.37100
C1828       C  0.70577985  0.98771184  0.07319876     0.37000
N1829       N  0.74023111  0.15598477  0.14239863    -0.43200
N1830       N  0.68428332  0.45309935  0.07661593    -0.43200
C1831       C  0.73182963  0.19357839  0.23043239     0.00400
C1832       C  0.70957762  0.15423822  0.23258572    -0.11500
C1833       C  0.70449526  0.13367896  0.26627847     0.02600
C1834       C  0.72098824  0.15231363  0.29951273     0.00300
C1835       C  0.74334998  0.19130060  0.29739643    -0.11400
C1836       C  0.74933759  0.21181125  0.26385202     0.02500
H1837       H  0.69686756  0.13890054  0.20750163     0.15500
H1838       H  0.75688711  0.20612326  0.32258527     0.15500
C1839       C  0.77378330  0.25134225  0.26604792     0.37100
C1840       C  0.68480180  0.09353509  0.26498713     0.37000
N1841       N  0.79415381  0.28276449  0.26924576    -0.43200
N1842       N  0.66908433  0.06134414  0.26365632    -0.43200
C1843       C  0.67547162  0.20994351  0.11009219     0.00400
C1844       C  0.67800660  0.20251718  0.07163977    -0.11500
C1845       C  0.65169139  0.20128126  0.04630723     0.02600
C1846       C  0.62041698  0.20409390  0.05960066     0.00300
C1847       C  0.61393622  0.20366648  0.09846570    -0.11400
C1848       C  0.64100480  0.20658052  0.12377058     0.02500
H1849       H  0.70135868  0.20012790  0.06001849     0.15500
H1850       H  0.58936251  0.20496441  0.10886526     0.15500
C1851       C  0.63334223  0.20870636  0.16324530     0.37100
C1852       C  0.65998886  0.20217728  0.00656884     0.37000
N1853       N  0.62625470  0.20987370  0.19473445    -0.43200
N1854       N  0.67549642  0.19547705  0.30771535    -0.43200
C1855       C  0.54796506  0.23857055  0.20500161     0.00400
C1856       C  0.58420952  0.26553856  0.21417370    -0.11500
C1857       C  0.60123560  0.26153821  0.24630777     0.02600
C1858       C  0.58230567  0.22970431  0.27007483     0.00300
C1859       C  0.54847036  0.20081676  0.25866012    -0.11400
C1860       C  0.53080463  0.20500680  0.22713616     0.02500
H1861       H  0.59824112  0.29181248  0.19891279     0.15500
H1862       H  0.53332011  0.17653508  0.27656701     0.15500
C1863       C  0.97401379  0.17934379  0.22622876     0.37100
C1864       C  0.63684720  0.29225798  0.25578858     0.37000
N1865       N  0.94320738  0.15869053  0.22042003    -0.43200
N1866       N  0.66500795  0.31719870  0.26365683    -0.43200
C1867       C  0.95468894  0.21239407  0.09938052     0.00400
C1868       C  0.97723846  0.22298767  0.06666484    -0.11500
C1869       C  0.96573498  0.20174381  0.03417916     0.02600
C1870       C  0.93300977  0.16698198  0.03519032     0.00300
C1871       C  0.91115148  0.15560240  0.06865219    -0.11400
C1872       C  0.92126847  0.17849505  0.10029276     0.02500
H1873       H  0.47963486  0.22780956  0.06201099     0.15500
H1874       H  0.88470019  0.13015015  0.06909398     0.15500
C1875       C  0.89624453  0.16776179  0.13272787     0.37100
C1876       C  0.98627969  0.21836781  0.99971308     0.37000
N1877       N  0.87602966  0.15959580  0.15859400    -0.43200
N1878       N  0.44490125  0.18343728  0.97772626    -0.43200
C1879       C  0.81936995  0.02629093  0.21719701     0.00400
C1880       C  0.79734475  0.00503948  0.24808904    -0.11500
C1881       C  0.80713702  0.01704250  0.28492742     0.02600
C1882       C  0.84072697  0.04965457  0.29143838     0.00300
C1883       C  0.86502342  0.06838811  0.26076806    -0.11400
C1884       C  0.85443455  0.05694026  0.22367519     0.02500
H1885       H  0.77153989  0.97991075  0.24337449     0.15500
H1886       H  0.89094604  0.09346264  0.26557303     0.15500
C1887       C  0.87900918  0.07770479  0.19257873     0.37100
C1888       C  0.78102647  0.99743758  0.31551290     0.37000
N1889       N  0.89829174  0.57875442  0.16535415    -0.43200
N1890       N  0.76033544  0.98298137  0.34052042    -0.43200
N1891       N  0.87658907  0.08590501  0.68782087    -0.02900
C1892       C  0.84382118  0.07062580  0.66911695    -0.00300
C1893       C  0.81965885  0.08252013  0.68370874    -0.23200
C1894       C  0.83848217  0.09996296  0.37376080    -0.23400
C1895       C  0.87402343  0.10388824  0.37494461    -0.00400
H1896       H  0.79261940  0.07652699  0.67329434     0.13300
H1897       H  0.82709833  0.11389348  0.39125462     0.13400
N1898       N  0.58659361  0.20975634  0.67129501    -0.02900
C1899       C  0.57866045  0.23492404  0.65392138    -0.00300
C1900       C  0.58745205  0.26539444  0.67641730    -0.23200
C1901       C  0.61664930  0.25319503  0.36474591    -0.23400
C1902       C  0.61238546  0.21769377  0.36153707    -0.00400
H1903       H  0.58518139  0.29009682  0.66931033     0.13300
H1904       H  0.62876200  0.27204089  0.38785570     0.13400
N1905       N  0.69774673  0.10415666  0.35560429    -0.02900
C1906       C  0.71740934  0.09943342  0.38415028    -0.00300
C1907       C  0.75487650  0.12442013  0.38021512    -0.23200
C1908       C  0.75271696  0.15840564  0.69317857    -0.23400
C1909       C  0.71730137  0.14425732  0.67941977    -0.00400
H1910       H  0.77705997  0.12681283  0.39810517     0.13300
H1911       H  0.77791598  0.18050070  0.68059525     0.13400
N1912       N  0.59886135  0.41011365  0.65193576    -0.02900
C1913       C  0.62774009  0.41088104  0.63138315    -0.00300
C1914       C  0.64119879  0.38913018  0.64821321    -0.23200
C1915       C  0.62958892  0.37856612  0.35106908    -0.23400
C1916       C  0.60154348  0.38818907  0.34953111    -0.00400
H1917       H  0.66383002  0.38451058  0.63798543     0.13300
H1918       H  0.63311346  0.36133185  0.37227528     0.13400
N1919       N  0.91038300  0.31053289  0.67257323    -0.02900
C1920       C  0.92082517  0.29248942  0.64671471    -0.00300
C1921       C  0.93020237  0.26787586  0.66396012    -0.23200
C1922       C  0.93076808  0.26965317  0.37479794    -0.23400
C1923       C  0.91339412  0.29137517  0.38062539    -0.00400
H1924       H  0.93764328  0.24857266  0.65032865     0.13300
H1925       H  0.93158949  0.24991863  0.39471189     0.13400
N1926       N  0.80895713  0.41535435  0.62040274    -0.02900
C1927       C  0.78728307  0.41427732  0.32759657    -0.00300
C1928       C  0.75643458  0.41432250  0.31291540    -0.23200
C1929       C  0.76344994  0.41693756  0.58714262    -0.23400
C1930       C  0.79354563  0.40981355  0.58581433    -0.00400
H1931       H  0.73514772  0.41767000  0.32830201     0.13300
H1932       H  0.74328396  0.41097718  0.56531283     0.13400
O1933       O  0.95663083  0.44182903  0.62596474    -0.87800
C1934       C  0.93170982  0.99370397  0.38300381     0.88200
Mg1935     Mg  0.00101119  0.42757007  0.63261273     1.58100
O1936       O  0.97547180  0.05427122  0.64314185    -0.87500
O1937       O  0.94549697  0.47837168  0.58869433    -0.74900
C1938       C  0.65795793  0.08299098  0.34922118     0.93300
O1939       O  0.96405634  0.43421361  0.39123540    -0.74700
O1940       O  0.64167916  0.04750687  0.35259405    -0.82200
Mg1941     Mg  0.91678776  0.42335238  0.34984580     1.58000
C1942       C  0.57006975  0.17009860  0.66492275     0.93200
O1943       O  0.86317095  0.41352044  0.63965700    -0.80400
H1944       H  0.97673655  0.06997665  0.58944004    -0.05800
C1945       C  0.55375716  0.06246706  0.38537543     0.88100
O1946       O  0.53938898  0.48198891  0.59785489    -0.75000
O1947       O  0.92916143  0.48119536  0.35188891    -0.87700
O1948       O  0.53479566  0.15042729  0.66951879    -0.80500
C1949       C  0.90838347  0.07261649  0.34353827     0.93300
C1950       C  0.84856690  0.43244452  0.62561677     0.93200
Mg1951     Mg  0.58060212  0.09476993  0.65080800     1.58000
O1952       O  0.64018922  0.10007031  0.33850397    -0.80500
O1953       O  0.53648962  0.08772863  0.60771845    -0.74700
O1954       O  0.89957793  0.04137964  0.32847048    -0.80500
O1955       O  0.90360773  0.36152964  0.34776430    -0.82200
O1956       O  0.59383672  0.46529598  0.65415704    -0.80600
C1957       C  0.50172975  0.07699448  0.60867633     0.87600
O1958       O  0.56958763  0.03656516  0.64508047    -0.87700
O1959       O  0.54655228  0.07063997  0.35415061    -0.87800
O1960       O  0.56504847  0.03844290  0.38916724    -0.74900
Mg1961     Mg  0.91992251  0.00941433  0.63804197     1.58000
O1962       O  0.94168715  0.09363884  0.35396803    -0.82200
H1963       H  0.95949227  0.43969240  0.56984869    -0.06000
O1964       O  0.51895076  0.45791545  0.35079902    -0.87500
H1965       H  0.51713848  0.44815771  0.40630400    -0.05800
H1966       H  0.58597322  0.04250194  0.59086335    -0.06000
C1967       C  0.99923268  0.44700917  0.38908907     0.87600
C1968       C  0.95357024  0.45220526  0.59400420     0.88200
C1969       C  0.56845080  0.02400029  0.61325237     0.88200
H1970       H  0.54986417  0.07566647  0.41011795    -0.06000
O1971       O  0.95338236  0.02761735  0.39013963    -0.75000
Mg1972     Mg  0.58002834  0.00202157  0.35017730     1.58000
H1973       H  0.91288383  0.47422324  0.40613535    -0.06000
C1974       C  0.92648697  0.34851146  0.34519903     0.93200
O1975       O  0.54354709  0.41234003  0.64060076    -0.82200
C1976       C  0.57821230  0.43047436  0.64707279     0.93300
O1977       O  0.86738215  0.46736683  0.61933439    -0.82200
Mg1978     Mg  0.50208435  0.08651231  0.35078126     1.58200
O1979       O  0.96125197  0.36966174  0.33809689    -0.80500
O1980       O  0.59104221  0.15510887  0.65945898    -0.82200
C1981       C  0.51600898  0.25869855  0.52037678     0.87000
C1982       C  0.98939712  0.21575632  0.49263234    -0.53200
C1983       C  0.96749898  0.22346939  0.46978901     0.10000
C1984       C  0.97120598  0.26279514  0.47470468     0.20900
C1985       C  0.53759652  0.29457450  0.49583919    -0.53900
C1986       C  0.51546747  0.30154842  0.47181215     0.10100
C1987       C  0.98396824  0.25604227  0.53999777    -0.53500
C1988       C  0.96314025  0.26518265  0.51680226     0.10600
H1989       H  0.99048784  0.18967950  0.49122955     0.15100
H1990       H  0.95373227  0.26949450  0.45584004     0.00900
H1991       H  0.56763035  0.31123232  0.49450392     0.15400
H1992       H  0.98183129  0.25691488  0.57051150     0.15200
C1993       C  0.78119005  0.47323637  0.46545021     0.87000
C1994       C  0.80732117  0.99216646  0.49984312    -0.53200
C1995       C  0.79691586  0.01287289  0.52203383     0.10000
C1996       C  0.75781282  0.00824279  0.51322715     0.20900
C1997       C  0.74577780  0.44999633  0.49096868    -0.53900
C1998       C  0.73398985  0.47120125  0.51174050     0.10100
C1999       C  0.76782626  0.99414562  0.44979444    -0.53500
C2000       C  0.75573743  0.01386595  0.47099192     0.10600
H2001       H  0.83198776  0.98922937  0.50501194     0.15100
H2002       H  0.75170268  0.02792386  0.52900807     0.00900
H2003       H  0.73245909  0.42009205  0.49368151     0.15400
H2004       H  0.76739893  0.99461654  0.41921021     0.15200
C2005       C  0.71377292  0.22067657  0.46879497     0.87000
C2006       C  0.70701531  0.19783504  0.50520035    -0.53200
C2007       C  0.73552136  0.21210499  0.53012778     0.10000
C2008       C  0.76968101  0.24870533  0.51477512     0.20900
C2009       C  0.72415492  0.26018975  0.48163166    -0.53900
C2010       C  0.75322557  0.27486477  0.50541042     0.10100
C2011       C  0.75081642  0.22499499  0.45206860    -0.53500
C2012       C  0.78042035  0.23987683  0.47555950     0.09900
H2013       H  0.68059963  0.17320842  0.51139889     0.15100
H2014       H  0.79348312  0.26059026  0.53383865     0.00900
H2015       H  0.70915336  0.27505025  0.47341073     0.15400
H2016       H  0.75516870  0.22034766  0.42294303     0.15200
C2017       C  0.79437519  0.45308400  0.43767792     0.00400
C2018       C  0.77294453  0.41459575  0.43152426    -0.11500
C2019       C  0.77452322  0.39979175  0.39647722     0.02600
C2020       C  0.79748623  0.42357424  0.36723214     0.00300
C2021       C  0.82370751  0.46003076  0.37558018    -0.11400
C2022       C  0.82342942  0.47444358  0.41105710     0.02500
H2023       H  0.75280825  0.39626820  0.45230502     0.15500
H2024       H  0.84189409  0.47847513  0.35349938     0.15500
C2025       C  0.84751440  0.00683801  0.42465936     0.37100
C2026       C  0.75038712  0.36068941  0.39012300     0.37000
N2027       N  0.86955912  0.03725937  0.43024829    -0.43200
N2028       N  0.73135718  0.32927027  0.38516861    -0.43200
C2029       C  0.78680796  0.37637926  0.56459462     0.00400
C2030       C  0.75697848  0.34277123  0.57798238    -0.11500
C2031       C  0.74422182  0.31058775  0.55716942     0.02600
C2032       C  0.76376106  0.31030457  0.52441006     0.00300
C2033       C  0.79258829  0.34398788  0.50975367    -0.11400
C2034       C  0.80384074  0.37732454  0.52939161     0.02500
H2035       H  0.74212776  0.34225726  0.60389180     0.15500
H2036       H  0.80589910  0.34427194  0.48293104     0.15500
C2037       C  0.83185490  0.41184940  0.51257388     0.37100
C2038       C  0.70971090  0.27881924  0.56875928     0.37000
N2039       N  0.85423446  0.43933559  0.49859521    -0.43200
N2040       N  0.68141879  0.25375848  0.57738699    -0.43200
C2041       C  0.88148039  0.27727198  0.40858831     0.00400
C2042       C  0.88034364  0.30017933  0.43732795    -0.11500
C2043       C  0.85004671  0.28709857  0.46352234     0.02600
C2044       C  0.81894651  0.25123798  0.45955405     0.00300
C2045       C  0.82230486  0.22734528  0.43330605    -0.11400
C2046       C  0.85288897  0.23962318  0.40839231     0.02500
H2047       H  0.90342840  0.32809169  0.43970360     0.15500
H2048       H  0.79992798  0.19900944  0.43114036     0.15500
C2049       C  0.85393410  0.21242795  0.38320966     0.37100
C2050       C  0.85309466  0.31034998  0.49498459     0.37000
N2051       N  0.84728695  0.19341912  0.69200406    -0.43200
N2052       N  0.85719771  0.32899204  0.52076958    -0.43200
C2053       C  0.91810266  0.29360037  0.60501093     0.00400
C2054       C  0.94655386  0.32261132  0.58374658    -0.11500
C2055       C  0.95541317  0.31606443  0.54711650     0.02600
C2056       C  0.93873922  0.27945735  0.53340666     0.00300
C2057       C  0.90557181  0.25312587  0.55106603    -0.11400
C2058       C  0.89450944  0.26043206  0.58624584     0.02500
H2059       H  0.96359160  0.34936780  0.59623100     0.15500
H2060       H  0.89061659  0.22553664  0.53953669     0.15500
C2061       C  0.86020196  0.23244456  0.60353005     0.37100
C2062       C  0.48317411  0.35305423  0.52764017     0.37000
N2063       N  0.83196755  0.20997965  0.61613965    -0.43200
N2064       N  0.50441625  0.37954402  0.51135317    -0.43200
C2065       C  0.57116655  0.37350682  0.37774699     0.00400
C2066       C  0.57978909  0.38789907  0.41399051    -0.11500
C2067       C  0.56058159  0.36594423  0.44546600     0.02600
C2068       C  0.53108627  0.32956970  0.44060278     0.00300
C2069       C  0.51957167  0.31737680  0.40400623    -0.11400
C2070       C  0.54021643  0.33829409  0.37263479     0.02500
H2071       H  0.60415090  0.41472115  0.41789143     0.15500
H2072       H  0.00052866  0.28520239  0.39629345     0.15500
C2073       C  0.53319855  0.32036584  0.33652150     0.37100
C2074       C  0.57276068  0.38106358  0.48215495     0.37000
N2075       N  0.03032097  0.31996993  0.30581552    -0.43200
N2076       N  0.58225987  0.39386680  0.51144907    -0.43200
C2077       C  0.64406762  0.42999955  0.59536785     0.00400
C2078       C  0.64225957  0.40748623  0.56490915    -0.11500
C2079       C  0.66925685  0.42075644  0.53565563     0.02600
C2080       C  0.70024994  0.45682772  0.53780181     0.00300
C2081       C  0.69946090  0.48015402  0.56670851    -0.11400
C2082       C  0.67208332  0.46710106  0.59517684     0.02500
H2083       H  0.62089374  0.37849089  0.56527997     0.15500
H2084       H  0.72050546  0.00491772  0.57698608     0.15500
C2085       C  0.67670227  0.49109504  0.62646462     0.37100
C2086       C  0.66366330  0.39668532  0.50410089     0.37000
N2087       N  0.68232886  0.01008495  0.65877328    -0.43200
N2088       N  0.65869525  0.37723092  0.47882682    -0.43200
C2089       C  0.70514179  0.07118472  0.41519142     0.00400
C2090       C  0.69445795  0.03432609  0.40554661    -0.11500
C2091       C  0.70760937  0.01336117  0.42562534     0.02600
C2092       C  0.73300417  0.03017807  0.45507498     0.00300
C2093       C  0.73712508  0.06373128  0.46925741    -0.11400
C2094       C  0.72193631  0.08341904  0.45051184     0.02500
H2095       H  0.67945887  0.02321199  0.38018121     0.15500
H2096       H  0.75462896  0.07618931  0.49320402     0.15500
C2097       C  0.73058235  0.11961297  0.46435771     0.37100
C2098       C  0.69514361  0.97517792  0.41499209     0.37000
N2099       N  0.73847637  0.14867387  0.47608243    -0.43200
N2100       N  0.68958935  0.44427727  0.40242362    -0.43200
C2101       C  0.73015736  0.19482185  0.56923058     0.00400
C2102       C  0.70798302  0.15573026  0.57406957    -0.11500
C2103       C  0.69991919  0.13811991  0.60994929     0.02600
C2104       C  0.71272985  0.15963109  0.64258881     0.00300
C2105       C  0.73357588  0.19858272  0.63779977    -0.11400
C2106       C  0.74366511  0.21600362  0.60218594     0.02500
H2107       H  0.69802823  0.13841015  0.54951221     0.15500
H2108       H  0.74468006  0.21557474  0.66249461     0.15500
C2109       C  0.76976063  0.25524085  0.60159794     0.37100
C2110       C  0.68094507  0.09797048  0.61193168     0.37000
N2111       N  0.79162275  0.28642756  0.60274591    -0.43200
N2112       N  0.66566717  0.06573506  0.61302879    -0.43200
C2113       C  0.68008121  0.20551821  0.44296295     0.00400
C2114       C  0.68323558  0.19638206  0.40532137    -0.11500
C2115       C  0.65913292  0.19685489  0.37824665     0.02600
C2116       C  0.62898367  0.20272836  0.38890299     0.00300
C2117       C  0.62134634  0.20411176  0.42724252    -0.11400
C2118       C  0.64630545  0.20522444  0.45434114     0.02500
H2119       H  0.70572305  0.19153038  0.39557650     0.15500
H2120       H  0.59752085  0.20766531  0.43575944     0.15500
C2121       C  0.63709279  0.20819427  0.49313504     0.37100
C2122       C  0.66891757  0.19633168  0.33932716     0.37000
N2123       N  0.62816123  0.20973566  0.52390423    -0.43200
N2124       N  0.66787682  0.21331787  0.64344825    -0.43200
C2125       C  0.53665152  0.24785395  0.54938344     0.00400
C2126       C  0.57361468  0.27260035  0.55859732    -0.11500
C2127       C  0.58946907  0.26641457  0.59062697     0.02600
C2128       C  0.56837579  0.23495000  0.61429910     0.00300
C2129       C  0.53345068  0.20808946  0.60296926    -0.11400
C2130       C  0.51735970  0.21417313  0.57107533     0.02500
H2131       H  0.58981782  0.29817378  0.54276508     0.15500
H2132       H  0.51720254  0.18380708  0.62074890     0.15500
C2133       C  0.97684377  0.17308246  0.56334648     0.37100
C2134       C  0.62677047  0.29417221  0.59984528     0.37000
N2135       N  0.94784443  0.14838854  0.55760856    -0.43200
N2136       N  0.65657101  0.31659800  0.60708675    -0.43200
C2137       C  0.94222807  0.19441746  0.44449297     0.00400
C2138       C  0.95302601  0.19490812  0.40668094    -0.11500
C2139       C  0.93234883  0.16454774  0.38361092     0.02600
C2140       C  0.90194405  0.13218821  0.39911535     0.00300
C2141       C  0.89164801  0.13175948  0.43711611    -0.11400
C2142       C  0.91102341  0.16266456  0.45958712     0.02500
H2143       H  0.49862128  0.23490749  0.39641213     0.15500
H2144       H  0.86702138  0.10782555  0.44871704     0.15500
C2145       C  0.89769428  0.16144870  0.49781757     0.37100
C2146       C  0.94053792  0.16856144  0.34365563     0.37000
N2147       N  0.88646881  0.15998888  0.52831071    -0.43200
N2148       N  0.48244165  0.19793487  0.30740654    -0.43200
C2149       C  0.81298776  0.02427459  0.55996543     0.00400
C2150       C  0.79003695  0.00636555  0.59141690    -0.11500
C2151       C  0.80055257  0.01942591  0.62762435     0.02600
C2152       C  0.83594598  0.05006085  0.63331611     0.00300
C2153       C  0.86097838  0.06527523  0.60231216    -0.11400
C2154       C  0.84974084  0.05235581  0.56568053     0.02500
H2155       H  0.76326299  0.98239313  0.58772401     0.15500
H2156       H  0.88836998  0.08869365  0.60633694     0.15500
C2157       C  0.87588402  0.06847576  0.53444741     0.37100
C2158       C  0.77332724  0.00220182  0.65792106     0.37000
N2159       N  0.89978416  0.58701810  0.50212774    -0.43200
N2160       N  0.75081502  0.98820328  0.68154748    -0.43200
N2161       N  0.90483430  0.11274035  0.99026766    -0.02900
C2162       C  0.87675687  0.10384441  0.96547201    -0.00300
C2163       C  0.87003063  0.13355196  0.95936850    -0.23200
C2164       C  0.83772716  0.10611624  0.71205531    -0.23400
C2165       C  0.87256132  0.10834835  0.71369377    -0.00400
H2166       H  0.84943839  0.13440577  0.94114080     0.13300
H2167       H  0.82740467  0.12176052  0.72842001     0.13400
N2168       N  0.58602528  0.20521784  0.00141601    -0.02900
C2169       C  0.58059236  0.23267701  0.98545108    -0.00300
C2170       C  0.59162255  0.26256825  0.00932355    -0.23200
C2171       C  0.60215218  0.25963249  0.70841168    -0.23400
C2172       C  0.60161682  0.22569749  0.70454683    -0.00400
H2173       H  0.59095256  0.28842619  0.00398858     0.13300
H2174       H  0.61432028  0.27924382  0.73092285     0.13400
N2175       N  0.69238597  0.11468606  0.70150865    -0.02900
C2176       C  0.71375597  0.11138928  0.72932053    -0.00300
C2177       C  0.75066844  0.13775923  0.72396215    -0.23200
C2178       C  0.75437841  0.15309125  0.01491639    -0.23400
C2179       C  0.71845228  0.14114310  0.00306260    -0.00400
H2180       H  0.77425473  0.14052998  0.73982146     0.13300
H2181       H  0.77984564  0.17464077  0.00214556     0.13400
N2182       N  0.60503390  0.41453434  0.98694560    -0.02900
C2183       C  0.63375018  0.41651040  0.96501321    -0.00300
C2184       C  0.64842426  0.39509020  0.98018873    -0.23200
C2185       C  0.62005221  0.37400495  0.68009266    -0.23400
C2186       C  0.59440970  0.38700752  0.68156347    -0.00400
H2187       H  0.67111228  0.39126053  0.96857639     0.13300
H2188       H  0.62242272  0.35483866  0.69974253     0.13400
N2189       N  0.91176795  0.31704902  0.01152847    -0.02900
C2190       C  0.92285128  0.29873534  0.98663382    -0.00300
C2191       C  0.93362256  0.27567281  0.00481774    -0.23200
C2192       C  0.92488153  0.27000253  0.70171236    -0.23400
C2193       C  0.90985203  0.29391177  0.70641418    -0.00400
H2194       H  0.94235714  0.25702773  0.99194174     0.13300
H2195       H  0.92467970  0.25045662  0.72263829     0.13400
N2196       N  0.81805538  0.42928973  0.95079011    -0.02900
C2197       C  0.78618886  0.42228278  0.64376108    -0.00300
C2198       C  0.75784790  0.42305736  0.62392503    -0.23200
C2199       C  0.77569640  0.43275962  0.91382368    -0.23400
C2200       C  0.80370433  0.42259310  0.91587260    -0.00400
H2201       H  0.73475537  0.42637437  0.63512108     0.13300
H2202       H  0.75616863  0.42632470  0.89129880     0.13400
O2203       O  0.96232624  0.44802403  0.96142761    -0.87800
C2204       C  0.92817122  0.99361991  0.72043067     0.88200
Mg2205     Mg  0.00534654  0.43228447  0.97015676     1.58100
O2206       O  0.99198072  0.06417752  0.96293530    -0.87500
O2207       O  0.95313715  0.48470843  0.92253596    -0.74900
C2208       C  0.65243874  0.09277739  0.69621546     0.93300
O2209       O  0.96399972  0.43595899  0.71491176    -0.74700
O2210       O  0.63648356  0.05737043  0.70055856    -0.82200
Mg2211     Mg  0.91713547  0.42672360  0.67344848     1.58000
C2212       C  0.56810051  0.16585886  0.99362024     0.93200
O2213       O  0.87001370  0.42396066  0.97188852    -0.80400
H2214       H  0.99635960  0.07721853  0.90804279    -0.05800
C2215       C  0.54546947  0.06864292  0.72861545     0.88100
O2216       O  0.54164834  0.48338689  0.93602490    -0.75000
O2217       O  0.93114007  0.48483201  0.67681312    -0.87700
O2218       O  0.53293207  0.14687652  0.99978453    -0.80500
C2219       C  0.90537383  0.07452751  0.68398167     0.93300
C2220       C  0.85715643  0.44436530  0.95753320     0.93200
Mg2221     Mg  0.57788886  0.09034670  0.97979007     1.58000
O2222       O  0.63432518  0.10928463  0.68487884    -0.80500
O2223       O  0.53215486  0.08210534  0.93859175    -0.74700
O2224       O  0.89644029  0.04343112  0.66844911    -0.80500
O2225       O  0.90243068  0.36436435  0.67108676    -0.82200
O2226       O  0.59850099  0.46887032  0.99236220    -0.80600
C2227       C  0.49757806  0.07186768  0.94109674     0.87600
O2228       O  0.56621724  0.03214151  0.97633995    -0.87700
O2229       O  0.53956502  0.07708281  0.69693252    -0.87800
O2230       O  0.55712811  0.04502838  0.73329571    -0.74900
Mg2231     Mg  0.93511890  0.02130097  0.95744566     1.58000
O2232       O  0.93866786  0.09513743  0.69494078    -0.82200
H2233       H  0.96495159  0.44399126  0.90549759    -0.06000
O2234       O  0.51501322  0.46108718  0.68390037    -0.87500
H2235       H  0.51196276  0.44976502  0.73916100    -0.05800
H2236       H  0.58034195  0.03498539  0.92165928    -0.06000
C2237       C  0.99901751  0.44742276  0.71361071     0.87600
C2238       C  0.95982352  0.45779260  0.92901645     0.88200
C2239       C  0.56393794  0.01773574  0.94527485     0.88200
H2240       H  0.53992188  0.08113561  0.75301287    -0.06000
O2241       O  0.94981483  0.02731615  0.72854180    -0.75000
Mg2242     Mg  0.57557806  0.01006631  0.69628838     1.58000
H2243       H  0.91485629  0.47703789  0.73105510    -0.06000
C2244       C  0.92452245  0.35037118  0.66865833     0.93200
O2245       O  0.54867880  0.41555162  0.97850204    -0.82200
C2246       C  0.58346501  0.43424060  0.98425327     0.93300
O2247       O  0.87727504  0.47916866  0.95202498    -0.82200
Mg2248     Mg  0.49382618  0.09076591  0.69191719     1.58200
O2249       O  0.95935601  0.37068554  0.66107420    -0.80500
O2250       O  0.58827154  0.15027457  0.98679142    -0.82200
C2251       C  0.51452440  0.25825398  0.85463017     0.87000
C2252       C  0.99159318  0.22233425  0.82640291    -0.53200
C2253       C  0.96677133  0.22843897  0.80682683     0.10000
C2254       C  0.97050510  0.26780286  0.81157657     0.20900
C2255       C  0.53571388  0.29261708  0.82799487    -0.53900
C2256       C  0.51276335  0.29999311  0.80544315     0.10100
C2257       C  0.99178899  0.26482494  0.87447026    -0.53500
C2258       C  0.96780830  0.27234580  0.85439165     0.10600
H2259       H  0.99320465  0.19654461  0.82428020     0.15100
H2260       H  0.95050740  0.27299947  0.79501898     0.00900
H2261       H  0.56578655  0.30812471  0.82477804     0.15400
H2262       H  0.99337101  0.26702966  0.90494531     0.15200
C2263       C  0.77937003  0.47398715  0.79128782     0.87000
C2264       C  0.79317442  0.98139610  0.82900193    -0.53200
C2265       C  0.78670680  0.00233501  0.85488054     0.10000
C2266       C  0.74943425  0.00320484  0.84881544     0.20900
C2267       C  0.74428925  0.45193684  0.81765650    -0.53900
C2268       C  0.73583325  0.47377692  0.84151911     0.10100
C2269       C  0.75977387  0.99817315  0.78274233    -0.53500
C2270       C  0.74956542  0.01638318  0.80822312     0.10600
H2271       H  0.81626590  0.97528992  0.83012118     0.15100
H2272       H  0.74548657  0.02125528  0.86939974     0.00900
H2273       H  0.72975017  0.42196308  0.81918382     0.15400
H2274       H  0.76047065  0.00365889  0.75272340     0.15200
C2275       C  0.71501490  0.23358827  0.80233936     0.87000
C2276       C  0.70821452  0.20807685  0.83652862    -0.53200
C2277       C  0.73720393  0.21962309  0.86076722     0.10000
C2278       C  0.77204585  0.25629176  0.84680266     0.20900
C2279       C  0.72730687  0.27230206  0.81852824    -0.53900
C2280       C  0.75683503  0.28407599  0.84162259     0.10100
C2281       C  0.75092169  0.23727929  0.78333528    -0.53500
C2282       C  0.78107647  0.24951981  0.80600950     0.09900
H2283       H  0.68129680  0.18388738  0.84207523     0.15100
H2284       H  0.79644865  0.26611140  0.86506895     0.00900
H2285       H  0.71353521  0.28892853  0.81262786     0.15400
H2286       H  0.75425772  0.23380402  0.75365460     0.15200
C2287       C  0.78745125  0.45295630  0.75957056     0.00400
C2288       C  0.75859194  0.41892438  0.74682044    -0.11500
C2289       C  0.75942001  0.40662023  0.71014644     0.02600
C2290       C  0.78970541  0.42801187  0.68519847     0.00300
C2291       C  0.82025513  0.45941909  0.69898200    -0.11400
C2292       C  0.81948431  0.47197791  0.73540717     0.02500
H2293       H  0.73341899  0.40327593  0.76358515     0.15500
H2294       H  0.84332228  0.47672411  0.68018252     0.15500
C2295       C  0.83336100  0.00675148  0.75306585     0.37100
C2296       C  0.72745744  0.37319870  0.69787300     0.37000
N2297       N  0.85446464  0.03689076  0.76076734    -0.43200
N2298       N  0.70175932  0.34650080  0.68812235    -0.43200
C2299       C  0.79595050  0.38767709  0.89757896     0.00400
C2300       C  0.76627896  0.35521647  0.91316594    -0.11500
C2301       C  0.75291134  0.32152408  0.89486439     0.02600
C2302       C  0.77064938  0.31945790  0.86136168     0.00300
C2303       C  0.79992803  0.35194688  0.84522239    -0.11400
C2304       C  0.81290004  0.38617159  0.86328871     0.02500
H2305       H  0.75230514  0.35668811  0.93891316     0.15500
H2306       H  0.81211944  0.35066204  0.81824030     0.15500
C2307       C  0.84304953  0.41914516  0.84615549     0.37100
C2308       C  0.71999985  0.28997333  0.91026321     0.37000
N2309       N  0.86743882  0.44543492  0.83238398    -0.43200
N2310       N  0.69348494  0.26503507  0.92289599    -0.43200
C2311       C  0.87846222  0.28209434  0.73472999     0.00400
C2312       C  0.88004624  0.30563714  0.76410001    -0.11500
C2313       C  0.85106068  0.29384729  0.79175900     0.02600
C2314       C  0.81850598  0.25899472  0.78848086     0.00300
C2315       C  0.81907710  0.23441682  0.76144580    -0.11400
C2316       C  0.84846360  0.24510983  0.73534410     0.02500
H2317       H  0.90444353  0.33272997  0.76612308     0.15500
H2318       H  0.79552840  0.20672848  0.75998975     0.15500
C2319       C  0.84740774  0.21664326  0.71063868     0.37100
C2320       C  0.85727546  0.31662623  0.82436976     0.37000
N2321       N  0.85159911  0.19741849  0.03094515    -0.43200
N2322       N  0.86400286  0.33473639  0.85095728    -0.43200
C2323       C  0.92084534  0.29907583  0.94492508     0.00400
C2324       C  0.94935207  0.32833861  0.92414541    -0.11500
C2325       C  0.96005865  0.32197395  0.88836025     0.02600
C2326       C  0.94398241  0.28548379  0.87428290     0.00300
C2327       C  0.91109579  0.25837860  0.89163384    -0.11400
C2328       C  0.89883124  0.26530407  0.92630829     0.02500
H2329       H  0.96553163  0.35520631  0.93674459     0.15500
H2330       H  0.89712235  0.23070279  0.88011836     0.15500
C2331       C  0.86495561  0.23631002  0.94319504     0.37100
C2332       C  0.48300380  0.35604889  0.86527754     0.37000
N2333       N  0.83705404  0.21275807  0.95519053    -0.43200
N2334       N  0.50225854  0.38230762  0.84744520    -0.43200
C2335       C  0.56463979  0.37302009  0.71062288     0.00400
C2336       C  0.57448855  0.38695598  0.74692580    -0.11500
C2337       C  0.55635458  0.36456782  0.77860692     0.02600
C2338       C  0.52723188  0.32797200  0.77401652     0.00300
C2339       C  0.51445978  0.31611445  0.73765041    -0.11400
C2340       C  0.53329625  0.33799068  0.70593183     0.02500
H2341       H  0.59894517  0.41375646  0.75053672     0.15500
H2342       H  0.98986832  0.28250004  0.73069072     0.15500
C2343       C  0.52369689  0.32187013  0.66901107     0.37100
C2344       C  0.56922809  0.37930784  0.81529738     0.37000
N2345       N  0.01435825  0.30349850  0.63586469    -0.43200
N2346       N  0.57925274  0.39151286  0.84471639    -0.43200
C2347       C  0.64811481  0.43538386  0.92837195     0.00400
C2348       C  0.64442901  0.41255087  0.89761997    -0.11500
C2349       C  0.67070098  0.42476433  0.86762248     0.02600
C2350       C  0.70264163  0.46046597  0.86873679     0.00300
C2351       C  0.70300670  0.48449063  0.89758243    -0.11400
C2352       C  0.67677923  0.47215576  0.92726796     0.02500
H2353       H  0.62249143  0.38379987  0.89861599     0.15500
H2354       H  0.68854869  0.00068119  0.88226189     0.15500
C2355       C  0.68302983  0.49641238  0.95874432     0.37100
C2356       C  0.66323135  0.39973345  0.83659787     0.37000
N2357       N  0.67378704  0.01913981  0.97312572    -0.43200
N2358       N  0.65657958  0.37928374  0.81193700    -0.43200
C2359       C  0.70441699  0.08191199  0.75890589     0.00400
C2360       C  0.69157354  0.04520592  0.74740295    -0.11500
C2361       C  0.70200377  0.02141425  0.76615367     0.02600
C2362       C  0.72758147  0.03512394  0.79598365     0.00300
C2363       C  0.73479803  0.06908374  0.81170658    -0.11400
C2364       C  0.72279893  0.09219393  0.79389783     0.02500
H2365       H  0.67748759  0.03622243  0.72122611     0.15500
H2366       H  0.75277691  0.07918467  0.83573556     0.15500
C2367       C  0.73594398  0.12912453  0.80838804     0.37100
C2368       C  0.68774978  0.98389308  0.75254219     0.37000
N2369       N  0.74785566  0.15902201  0.81963027    -0.43200
N2370       N  0.68675592  0.44894607  0.74045196    -0.43200
C2371       C  0.73165333  0.19966571  0.89824605     0.00400
C2372       C  0.70746278  0.16077255  0.90067157    -0.11500
C2373       C  0.69892238  0.14074776  0.93506299     0.02600
C2374       C  0.71357939  0.15958325  0.96874680     0.00300
C2375       C  0.73620922  0.19855516  0.96654178    -0.11400
C2376       C  0.74655238  0.21827841  0.93218793     0.02500
H2377       H  0.69585956  0.14534879  0.87530307     0.15500
H2378       H  0.74838261  0.21352057  0.99210759     0.15500
C2379       C  0.77385744  0.25705638  0.93374020     0.37100
C2380       C  0.67651899  0.10090700  0.93404988     0.37000
N2381       N  0.79645976  0.28781528  0.93643756    -0.43200
N2382       N  0.65797063  0.06907964  0.93172222    -0.43200
C2383       C  0.68049733  0.22114176  0.77806658     0.00400
C2384       C  0.68168825  0.21361050  0.73953528    -0.11500
C2385       C  0.65467986  0.21229115  0.71525248     0.02600
C2386       C  0.62359838  0.21488448  0.72948469     0.00300
C2387       C  0.61932070  0.21684610  0.76849825    -0.11400
C2388       C  0.64728934  0.22007171  0.79281723     0.02500
H2389       H  0.70444324  0.21088269  0.72690815     0.15500
H2390       H  0.59537472  0.21884756  0.77969382     0.15500
C2391       C  0.64174059  0.22435543  0.83241886     0.37100
C2392       C  0.66223026  0.21306904  0.67545776     0.37000
N2393       N  0.63664431  0.22748115  0.86405072    -0.43200
N2394       N  0.66547975  0.20248594  0.97446897    -0.43200
C2395       C  0.53586149  0.24711388  0.88255003     0.00400
C2396       C  0.57263999  0.27246507  0.89177139    -0.11500
C2397       C  0.58909767  0.26642564  0.92346911     0.02600
C2398       C  0.56886002  0.23431767  0.94669239     0.00300
C2399       C  0.53376501  0.20750411  0.93587171    -0.11400
C2400       C  0.51705997  0.21347579  0.90451136     0.02500
H2401       H  0.58797342  0.29848854  0.87632408     0.15500
H2402       H  0.51772111  0.18325831  0.95376272     0.15500
C2403       C  0.98702916  0.18480563  0.89875358     0.37100
C2404       C  0.62594760  0.29503419  0.93293807     0.37000
N2405       N  0.95603660  0.16226924  0.89930459    -0.43200
N2406       N  0.65522271  0.31819719  0.94072950    -0.43200
C2407       C  0.94102674  0.19886594  0.78235342     0.00400
C2408       C  0.95172271  0.19890113  0.74457799    -0.11500
C2409       C  0.93115547  0.16838814  0.72179775     0.02600
C2410       C  0.90097077  0.13615027  0.73763130     0.00300
C2411       C  0.89123152  0.13565760  0.77583193    -0.11400
C2412       C  0.91062576  0.16675976  0.79808541     0.02500
H2413       H  0.48416231  0.22996738  0.73306175     0.15500
H2414       H  0.86701404  0.11151753  0.78776416     0.15500
C2415       C  0.89836759  0.16506559  0.83680999     0.37100
C2416       C  0.93957557  0.17204618  0.68184273     0.37000
N2417       N  0.88782372  0.16301223  0.86767203    -0.43200
N2418       N  0.45671950  0.18796069  0.64676592    -0.43200
C2419       C  0.81184801  0.02145754  0.88709979     0.00400
C2420       C  0.79539469  0.02472408  0.92109700    -0.11500
C2421       C  0.81700070  0.04793863  0.94969707     0.02600
C2422       C  0.85598189  0.06885978  0.94466289     0.00300
C2423       C  0.87293941  0.06278802  0.91281987    -0.11400
C2424       C  0.85149199  0.03884662  0.88444288     0.02500
H2425       H  0.76535152  0.00989655  0.92511785     0.15500
H2426       H  0.90296688  0.07877881  0.90887975     0.15500
C2427       C  0.87172921  0.03444599  0.85288999     0.37100
C2428       C  0.79838653  0.05174949  0.98310883     0.37000
N2429       N  0.90859530  0.56093203  0.82025327    -0.43200
N2430       N  0.78347932  0.05482431  0.00986560    -0.43200
N2431       N  0.87948204  0.58451209  0.34427709    -0.02900
C2432       C  0.84746132  0.56951446  0.32428118    -0.00300
C2433       C  0.82354647  0.58255822  0.33676032    -0.23200
C2434       C  0.89689515  0.66166757  0.98520692    -0.23400
C2435       C  0.91677162  0.64749778  0.00408674    -0.00400
H2436       H  0.79694902  0.57675310  0.32526788     0.13300
H2437       H  0.89903353  0.68889376  0.98847702     0.13400
N2438       N  0.59617183  0.70120690  0.32420348    -0.02900
C2439       C  0.59243268  0.72714927  0.30319961    -0.00300
C2440       C  0.60066266  0.75840402  0.32420022    -0.23200
C2441       C  0.58768780  0.74491862  0.04816374    -0.23400
C2442       C  0.59236451  0.71424055  0.04008759    -0.00400
H2443       H  0.60036204  0.78348716  0.31478326     0.13300
H2444       H  0.59746842  0.76249951  0.07253284     0.13400
N2445       N  0.69306314  0.61133692  0.02522564    -0.02900
C2446       C  0.71552619  0.60660657  0.05055778    -0.00300
C2447       C  0.75267930  0.63090785  0.04255795    -0.23200
C2448       C  0.75689092  0.63742090  0.33595643    -0.23400
C2449       C  0.72164750  0.62824068  0.32369726    -0.00400
H2450       H  0.77663562  0.63285321  0.05712206     0.13300
H2451       H  0.78318673  0.65738344  0.32332110     0.13400
N2452       N  0.60187416  0.90653711  0.30752887    -0.02900
C2453       C  0.62606234  0.90600088  0.28106513    -0.00300
C2454       C  0.63793313  0.88050018  0.29062716    -0.23200
C2455       C  0.62956659  0.88866693  0.03551269    -0.23400
C2456       C  0.60122734  0.89803044  0.03402422    -0.00400
H2457       H  0.65846523  0.87553820  0.27563023     0.13300
H2458       H  0.63246443  0.87053300  0.05604654     0.13400
N2459       N  0.91356839  0.80846148  0.34527262    -0.02900
C2460       C  0.92514900  0.79235951  0.31837969    -0.00300
C2461       C  0.93559792  0.76790473  0.33414075    -0.23200
C2462       C  0.92974849  0.77762266  0.03769992    -0.23400
C2463       C  0.91325074  0.80045625  0.04019080    -0.00400
H2464       H  0.94417247  0.74997502  0.31938164     0.13300
H2465       H  0.92916047  0.75844796  0.05930935     0.13400
N2466       N  0.80551541  0.90747375  0.30465594    -0.02900
C2467       C  0.79679385  0.93670320  0.97514323    -0.00300
C2468       C  0.76953214  0.93948752  0.95532677    -0.23200
C2469       C  0.75311111  0.90207891  0.27961824    -0.23400
C2470       C  0.78587044  0.90031446  0.27264835    -0.00400
H2471       H  0.74836075  0.94595664  0.96636315     0.13300
H2472       H  0.73013826  0.89390899  0.26063495     0.13400
O2473       O  0.95495350  0.93790497  0.29992557    -0.87800
C2474       C  0.94143444  0.50735623  0.04164844     0.88200
Mg2475     Mg  0.00063421  0.92549403  0.30534583     1.58100
O2476       O  0.97866917  0.55150148  0.30567706    -0.87500
O2477       O  0.94005899  0.97134623  0.26239551    -0.74900
C2478       C  0.65297784  0.58916179  0.02116061     0.93300
O2479       O  0.96788990  0.94282186  0.04968659    -0.74700
O2480       O  0.63774423  0.55376824  0.02489918    -0.82200
Mg2481     Mg  0.92298415  0.93465959  0.00641543     1.58000
C2482       C  0.57688696  0.66138187  0.31982603     0.93200
O2483       O  0.86183948  0.90777365  0.31819342    -0.80400
H2484       H  0.98067363  0.56690996  0.25173953    -0.05800
C2485       C  0.54676072  0.56425302  0.05817004     0.88100
O2486       O  0.54321591  0.98130313  0.26212029    -0.75000
O2487       O  0.93817380  0.99394236  0.00900527    -0.87700
O2488       O  0.54231233  0.64371485  0.32929591    -0.80500
C2489       C  0.92885664  0.59284935  0.99701572     0.93300
C2490       C  0.84546195  0.92552014  0.30562976     0.93200
Mg2491     Mg  0.58124726  0.58379157  0.30400809     1.58000
O2492       O  0.63391683  0.60522088  0.01151004    -0.80500
O2493       O  0.53492541  0.57762152  0.26477122    -0.74700
O2494       O  0.91533271  0.55951836  0.98542628    -0.80500
O2495       O  0.90752684  0.87134908  0.00425414    -0.82200
O2496       O  0.59878663  0.96204134  0.31907727    -0.80600
C2497       C  0.50085861  0.56880005  0.26950313     0.87600
O2498       O  0.56686701  0.52485955  0.29986428    -0.87700
O2499       O  0.53865234  0.57119250  0.02683558    -0.87800
O2500       O  0.55988642  0.54173975  0.06228333    -0.74900
Mg2501     Mg  0.92358702  0.50671870  0.29985434     1.58000
O2502       O  0.96220628  0.61035735  0.00841110    -0.82200
H2503       H  0.95475396  0.93303604  0.24394372    -0.06000
O2504       O  0.51648178  0.96523911  0.02669377    -0.87500
H2505       H  0.51155113  0.95565941  0.08240387    -0.05800
H2506       H  0.57885269  0.52787496  0.24461136    -0.06000
C2507       C  0.00277179  0.95374766  0.04900660     0.87600
C2508       C  0.94965312  0.94631886  0.26794498     0.88200
C2509       C  0.56319335  0.51060172  0.26852859     0.88200
H2510       H  0.54220582  0.57729155  0.08268814    -0.06000
O2511       O  0.96511581  0.54068532  0.04883224    -0.75000
Mg2512     Mg  0.57678219  0.50663742  0.02343911     1.58000
H2513       H  0.92140021  0.98889457  0.06300398    -0.06000
C2514       C  0.92939857  0.85695767  0.00227932     0.93200
O2515       O  0.54764599  0.91160541  0.30144127    -0.82200
C2516       C  0.58220972  0.92812771  0.30831554     0.93300
O2517       O  0.86294727  0.96016365  0.29767209    -0.82200
Mg2518     Mg  0.49225493  0.58455353  0.02328886     1.58200
O2519       O  0.96437966  0.87711132  0.99581684    -0.80500
O2520       O  0.59529848  0.64460252  0.31054340    -0.82200
C2521       C  0.52772733  0.74518287  0.17575190     0.87000
C2522       C  0.99465999  0.72485345  0.15935364    -0.53200
C2523       C  0.97358750  0.73325421  0.13614901     0.10000
C2524       C  0.97482534  0.77115961  0.14400241     0.20900
C2525       C  0.54448636  0.78341291  0.15444085    -0.53900
C2526       C  0.51823163  0.79239963  0.14121564     0.10100
C2527       C  0.98449819  0.76014424  0.20909069    -0.53500
C2528       C  0.96415815  0.76983913  0.18593129     0.10600
H2529       H  0.99857916  0.70050002  0.15544559     0.15100
H2530       H  0.95751743  0.77808410  0.12507539     0.00900
H2531       H  0.57381498  0.80049412  0.14729932     0.15400
H2532       H  0.98115280  0.75934092  0.23962122     0.15200
C2533       C  0.78466992  0.97910705  0.12361932     0.87000
C2534       C  0.80732489  0.49419905  0.15207731    -0.53200
C2535       C  0.79706695  0.51069392  0.17973972     0.10000
C2536       C  0.75918305  0.50965497  0.17364471     0.20900
C2537       C  0.74784791  0.95479950  0.14704358    -0.53900
C2538       C  0.73761012  0.97497342  0.17112324     0.10100
C2539       C  0.77213992  0.50991943  0.10720311    -0.53500
C2540       C  0.75958630  0.52495063  0.13405921     0.10600
H2541       H  0.83210272  0.49076519  0.15336503     0.15100
H2542       H  0.75363756  0.52541089  0.19584610     0.00900
H2543       H  0.73238709  0.92479864  0.14634589     0.15400
H2544       H  0.77167689  0.51602602  0.07741520     0.15200
C2545       C  0.71274524  0.73046986  0.13130522     0.87000
C2546       C  0.70826613  0.70355732  0.16346849    -0.53200
C2547       C  0.73753109  0.71541350  0.18734924     0.10000
C2548       C  0.77034152  0.75416181  0.17493233     0.20900
C2549       C  0.72231931  0.76748959  0.15036465    -0.53900
C2550       C  0.75252158  0.77995667  0.17278184     0.10100
C2551       C  0.74945502  0.73819752  0.11097342    -0.53500
C2552       C  0.77971991  0.75088818  0.13343190     0.09900
H2553       H  0.68249501  0.67780652  0.16779565     0.15100
H2554       H  0.79520075  0.76452879  0.19248493     0.00900
H2555       H  0.70590681  0.78194646  0.14747740     0.15400
H2556       H  0.75305216  0.73648906  0.08099949     0.15200
C2557       C  0.79604447  0.96093034  0.09184604     0.00400
C2558       C  0.77002434  0.92578517  0.07849038    -0.11500
C2559       C  0.77153711  0.91617859  0.04097654     0.02600
C2560       C  0.80019169  0.94117355  0.01639379     0.00300
C2561       C  0.82917619  0.97346946  0.03083431    -0.11400
C2562       C  0.82771871  0.98336768  0.06824355     0.02500
H2563       H  0.74616432  0.90695086  0.09547273     0.15500
H2564       H  0.85129410  0.99282093  0.01209278     0.15500
C2565       C  0.84911914  0.52436675  0.07649505     0.37100
C2566       C  0.74158993  0.88181286  0.02753469     0.37000
N2567       N  0.87075328  0.55372722  0.08589224    -0.43200
N2568       N  0.71745987  0.85436855  0.01685720    -0.43200
C2569       C  0.78282442  0.87059120  0.24764195     0.00400
C2570       C  0.75592631  0.83439522  0.25833322    -0.11500
C2571       C  0.74479536  0.80543862  0.23326006     0.02600
C2572       C  0.76260525  0.81155908  0.19784289     0.00300
C2573       C  0.78988429  0.84761043  0.18687816    -0.11400
C2574       C  0.80029848  0.87731873  0.21181323     0.02500
H2575       H  0.74173077  0.82930759  0.28564434     0.15500
H2576       H  0.80271944  0.85251632  0.15894881     0.15500
C2577       C  0.82881756  0.91406711  0.20049708     0.37100
C2578       C  0.71314346  0.77030306  0.24338937     0.37000
N2579       N  0.85212044  0.94347745  0.19178497    -0.43200
N2580       N  0.68710819  0.74238890  0.25089236    -0.43200
C2581       C  0.88019792  0.78767030  0.06614048     0.00400
C2582       C  0.87959570  0.81050996  0.09518141    -0.11500
C2583       C  0.84911260  0.79771382  0.12102182     0.02600
C2584       C  0.81739119  0.76258459  0.11600611     0.00300
C2585       C  0.81947792  0.73920161  0.08861234    -0.11400
C2586       C  0.85044749  0.75070417  0.06476542     0.02500
H2587       H  0.90346776  0.83777565  0.09846784     0.15500
H2588       H  0.79627623  0.71148520  0.08544184     0.15500
C2589       C  0.85106732  0.72238593  0.04126001     0.37100
C2590       C  0.85279286  0.82009740  0.15339702     0.37000
N2591       N  0.85169792  0.69107627  0.35893086    -0.43200
N2592       N  0.85777215  0.83804150  0.17989929    -0.43200
C2593       C  0.92209757  0.79508940  0.27694164     0.00400
C2594       C  0.95050385  0.82479440  0.25642301    -0.11500
C2595       C  0.95815824  0.82002532  0.21877432     0.02600
C2596       C  0.94027373  0.78423331  0.20308911     0.00300
C2597       C  0.90720489  0.75752156  0.22052025    -0.11400
C2598       C  0.89758701  0.76313095  0.25706627     0.02500
H2599       H  0.96867211  0.85046067  0.27022205     0.15500
H2600       H  0.89181153  0.73038396  0.20792541     0.15500
C2601       C  0.86377771  0.73451914  0.27425792     0.37100
C2602       C  0.53242808  0.82010440  0.23964202     0.37000
N2603       N  0.83577848  0.71147369  0.28656624    -0.43200
N2604       N  0.56389715  0.82924184  0.23643611    -0.43200
C2605       C  0.56767463  0.87755364  0.05783286     0.00400
C2606       C  0.56897727  0.88794986  0.09548032    -0.11500
C2607       C  0.54861112  0.86118115  0.12348256     0.02600
C2608       C  0.52816242  0.82338186  0.11374057     0.00300
C2609       C  0.52302826  0.81427314  0.07562302    -0.11400
C2610       C  0.54206105  0.84116587  0.04753950     0.02500
H2611       H  0.58819441  0.91621389  0.10334757     0.15500
H2612       H  0.99606964  0.79702843  0.07073169     0.15500
C2613       C  0.53925187  0.82951797  0.00882093     0.37100
C2614       C  0.54893795  0.87364201  0.16136942     0.37000
N2615       N  0.02293260  0.82457126  0.97824093    -0.43200
N2616       N  0.54898462  0.88559880  0.19083270    -0.43200
C2617       C  0.64359178  0.93146527  0.24896649     0.00400
C2618       C  0.63969821  0.91513770  0.21354557    -0.11500
C2619       C  0.66909791  0.92908973  0.18692066     0.02600
C2620       C  0.70326041  0.96032974  0.19572842     0.00300
C2621       C  0.70476963  0.97916862  0.22934907    -0.11400
C2622       C  0.67548386  0.96511479  0.25566651     0.02500
H2623       H  0.61535743  0.88894093  0.20825238     0.15500
H2624       H  0.69584993  0.50177105  0.20622619     0.15500
C2625       C  0.68172958  0.98234253  0.29193436     0.37100
C2626       C  0.66340092  0.90956430  0.15196650     0.37000
N2627       N  0.67241623  0.51277260  0.29620975    -0.43200
N2628       N  0.65846390  0.89320917  0.12433017    -0.43200
C2629       C  0.70590229  0.58022638  0.08306983     0.00400
C2630       C  0.69299857  0.54252832  0.07543729    -0.11500
C2631       C  0.70633741  0.52182490  0.09554245     0.02600
C2632       C  0.73385570  0.53952318  0.12302031     0.00300
C2633       C  0.74035085  0.57418170  0.13593000    -0.11400
C2634       C  0.72576921  0.59425792  0.11672367     0.02500
H2635       H  0.67677516  0.53042777  0.05087982     0.15500
H2636       H  0.75996149  0.58723913  0.15826564     0.15500
C2637       C  0.73848585  0.63224803  0.12738305     0.37100
C2638       C  0.69390032  0.48360925  0.08509080     0.37000
N2639       N  0.74994902  0.66295727  0.13577486    -0.43200
N2640       N  0.69976897  0.95878473  0.06231903    -0.43200
C2641       C  0.73394424  0.69328403  0.22305503     0.00400
C2642       C  0.70971873  0.65429708  0.22372483    -0.11500
C2643       C  0.70166117  0.63244754  0.25682946     0.02600
C2644       C  0.71819315  0.64916849  0.29076124     0.00300
C2645       C  0.74212584  0.68790172  0.29028776    -0.11400
C2646       C  0.75074717  0.70971947  0.25732694     0.02500
H2647       H  0.69734334  0.64015191  0.19798573     0.15500
H2648       H  0.75573752  0.70115535  0.31607616     0.15500
C2649       C  0.77790094  0.74838122  0.26065067     0.37100
C2650       C  0.67728069  0.59300508  0.25424363     0.37000
N2651       N  0.80035193  0.77901192  0.26461132    -0.43200
N2652       N  0.65701836  0.56165919  0.25068486    -0.43200
C2653       C  0.67765957  0.71641205  0.10775679     0.00400
C2654       C  0.67916944  0.71183248  0.06856156    -0.11500
C2655       C  0.65012531  0.70782660  0.04582741     0.02600
C2656       C  0.61737795  0.70545079  0.06224309     0.00300
C2657       C  0.61331617  0.70425925  0.10149187    -0.11400
C2658       C  0.64290869  0.70964645  0.12429910     0.02500
H2659       H  0.70335703  0.71332777  0.05434174     0.15500
H2660       H  0.58782017  0.70182547  0.11428761     0.15500
C2661       C  0.63648033  0.70838630  0.16447597     0.37100
C2662       C  0.65676093  0.71060445  0.00564167     0.37000
N2663       N  0.63031140  0.70599854  0.19658019    -0.43200
N2664       N  0.67174549  0.68986487  0.30671889    -0.43200
C2665       C  0.55372003  0.73335666  0.19501758     0.00400
C2666       C  0.58890358  0.76126736  0.20560985    -0.11500
C2667       C  0.60443343  0.75782440  0.23908944     0.02600
C2668       C  0.58483584  0.72577045  0.26249607     0.00300
C2669       C  0.55396815  0.69510467  0.24822382    -0.11400
C2670       C  0.53862645  0.69825203  0.21444925     0.02500
H2671       H  0.60266129  0.78770817  0.19064444     0.15500
H2672       H  0.53923622  0.66980484  0.26494970     0.15500
C2673       C  0.97606802  0.67974303  0.22836441     0.37100
C2674       C  0.63913160  0.78899161  0.24999476     0.37000
N2675       N  0.94566159  0.65844856  0.22168369    -0.43200
N2676       N  0.66671619  0.81419784  0.25872961    -0.43200
C2677       C  0.95849447  0.71073740  0.10244223     0.00400
C2678       C  0.98064113  0.72122022  0.06942729    -0.11500
C2679       C  0.96884871  0.69953465  0.03729461     0.02600
C2680       C  0.93581777  0.66517241  0.03881368     0.00300
C2681       C  0.91470842  0.65363419  0.07265451    -0.11400
C2682       C  0.92555119  0.67638072  0.10428246     0.02500
H2683       H  0.47425568  0.72673617  0.05930335     0.15500
H2684       H  0.88824209  0.62822521  0.07344966     0.15500
C2685       C  0.90175586  0.66480183  0.13770565     0.37100
C2686       C  0.98951345  0.71477677  0.00251055     0.37000
N2687       N  0.88247020  0.65566153  0.16434297    -0.43200
N2688       N  0.43452831  0.68486205  0.97662532    -0.43200
C2689       C  0.81484389  0.52017734  0.21704475     0.00400
C2690       C  0.79178277  0.50359479  0.24886884    -0.11500
C2691       C  0.80363824  0.51673990  0.28484862     0.02600
C2692       C  0.83952334  0.54694453  0.28974183     0.00300
C2693       C  0.86418562  0.56091494  0.25840364    -0.11400
C2694       C  0.85211708  0.54767325  0.22205513     0.02500
H2695       H  0.76342672  0.48169391  0.24544565     0.15500
H2696       H  0.89174717  0.58428849  0.26181394     0.15500
C2697       C  0.87749311  0.56482053  0.19039947     0.37100
C2698       C  0.77704049  0.50114147  0.31583796     0.37000
N2699       N  0.89860721  0.09383754  0.16734684    -0.43200
N2700       N  0.75538967  0.48901378  0.34043999    -0.43200
N2701       N  0.88336487  0.58774030  0.68010699    -0.02900
C2702       C  0.84951519  0.57202817  0.66334493    -0.00300
C2703       C  0.82509726  0.58156261  0.68169302    -0.23200
C2704       C  0.84086668  0.60614396  0.36529320    -0.23400
C2705       C  0.87506920  0.60758468  0.36913018    -0.00400
H2706       H  0.79726292  0.57514667  0.67352086     0.13300
H2707       H  0.83049335  0.62191035  0.38108077     0.13400
N2708       N  0.59304999  0.70598084  0.66235047    -0.02900
C2709       C  0.58859878  0.73304322  0.64412610    -0.00300
C2710       C  0.59788343  0.76341299  0.66694657    -0.23200
C2711       C  0.61128845  0.75249444  0.35868189    -0.23400
C2712       C  0.60876679  0.71753785  0.35788813    -0.00400
H2713       H  0.59753427  0.78911619  0.65979603     0.13300
H2714       H  0.62220351  0.77257329  0.38097789     0.13400
N2715       N  0.69500101  0.60122654  0.34685490    -0.02900
C2716       C  0.71492975  0.59502217  0.37376020    -0.00300
C2717       C  0.75260916  0.61696484  0.36754932    -0.23200
C2718       C  0.75349638  0.63615207  0.67261820    -0.23400
C2719       C  0.71798515  0.62803376  0.66245411    -0.00400
H2720       H  0.77456063  0.61783319  0.38465793     0.13300
H2721       H  0.77929218  0.65418129  0.65779619     0.13400
N2722       N  0.60285575  0.91528978  0.66476647    -0.02900
C2723       C  0.62716126  0.91033402  0.64164079    -0.00300
C2724       C  0.63846605  0.88660519  0.65800728    -0.23200
C2725       C  0.61982368  0.86373627  0.32351727    -0.23400
C2726       C  0.59723194  0.87927269  0.33262649    -0.00400
H2727       H  0.65752349  0.87770576  0.64605564     0.13300
H2728       H  0.62271423  0.84251885  0.33932568     0.13400
N2729       N  0.91107991  0.80928766  0.67806900    -0.02900
C2730       C  0.92328320  0.79288150  0.65199735    -0.00300
C2731       C  0.93360613  0.76880795  0.66893870    -0.23200
C2732       C  0.92915614  0.76776143  0.37203815    -0.23400
C2733       C  0.91319456  0.79067768  0.37817801    -0.00400
H2734       H  0.94220850  0.75048854  0.65503053     0.13300
H2735       H  0.92919989  0.74756539  0.39188453     0.13400
N2736       N  0.80395221  0.91037826  0.63182123    -0.02900
C2737       C  0.78397025  0.91143755  0.33192158    -0.00300
C2738       C  0.75126603  0.90755566  0.31734784    -0.23200
C2739       C  0.75841424  0.90939578  0.59637673    -0.23400
C2740       C  0.78945878  0.90379250  0.59696787    -0.00400
H2741       H  0.72820899  0.90790496  0.33264975     0.13300
H2742       H  0.73880818  0.90231068  0.57380192     0.13400
O2743       O  0.95134534  0.94023818  0.63458970    -0.87800
C2744       C  0.93002610  0.49325872  0.38389017     0.88200
Mg2745     Mg  0.99701483  0.92796299  0.63756440     1.58100
O2746       O  0.98272687  0.55620448  0.63255396    -0.87500
O2747       O  0.93838837  0.97651628  0.59905665    -0.74900
C2748       C  0.65496474  0.58109966  0.34304688     0.93300
O2749       O  0.96563666  0.93416610  0.38884398    -0.74700
O2750       O  0.63805029  0.54599468  0.34914510    -0.82200
Mg2751     Mg  0.91733446  0.92321940  0.34894777     1.58000
C2752       C  0.57417011  0.66623221  0.65611925     0.93200
O2753       O  0.85873867  0.90982551  0.65126364    -0.80400
H2754       H  0.98680669  0.57076471  0.57810165    -0.05800
C2755       C  0.55224745  0.56162018  0.38544694     0.88100
O2756       O  0.54672354  0.99000054  0.60600151    -0.75000
O2757       O  0.92999428  0.98120674  0.35109180    -0.87700
O2758       O  0.53903885  0.64803788  0.66305593    -0.80500
C2759       C  0.90801291  0.57281043  0.34215935     0.93300
C2760       C  0.84335486  0.92836360  0.63807319     0.93200
Mg2761     Mg  0.57978362  0.58864192  0.64097675     1.58000
O2762       O  0.63745348  0.59839295  0.33259558    -0.80500
O2763       O  0.53424440  0.58303964  0.60035889    -0.74700
O2764       O  0.89959278  0.54172165  0.32693256    -0.80500
O2765       O  0.90402439  0.86131903  0.34641004    -0.82200
O2766       O  0.59790116  0.97065134  0.66967854    -0.80600
C2767       C  0.49977948  0.57336879  0.60342307     0.87600
O2768       O  0.56554639  0.52971274  0.63541447    -0.87700
O2769       O  0.54459112  0.56972594  0.35439864    -0.87800
O2770       O  0.56289338  0.53710837  0.38909846    -0.74900
Mg2771     Mg  0.92671918  0.51236629  0.62608389     1.58000
O2772       O  0.94069972  0.59322288  0.35440180    -0.82200
H2773       H  0.95205462  0.93824727  0.57839855    -0.06000
O2774       O  0.52163400  0.96032577  0.34892017    -0.87500
H2775       H  0.52002923  0.95116684  0.40448292    -0.05800
H2776       H  0.57794670  0.53392733  0.58019195    -0.06000
C2777       C  0.00073369  0.94674944  0.38597276     0.87600
C2778       C  0.94684636  0.95051949  0.60317348     0.88200
C2779       C  0.56189368  0.51617087  0.60369120     0.88200
H2780       H  0.54899766  0.57513080  0.41026204    -0.06000
O2781       O  0.95155071  0.52701916  0.39173342    -0.75000
Mg2782     Mg  0.57707993  0.50052304  0.34992299     1.58000
H2783       H  0.91515071  0.97498899  0.40571476    -0.06000
C2784       C  0.92675986  0.84817828  0.34307211     0.93200
O2785       O  0.54970818  0.91972284  0.64817262    -0.82200
C2786       C  0.58317984  0.93665031  0.65911179     0.93300
O2787       O  0.86127980  0.96343219  0.63262513    -0.82200
Mg2788     Mg  0.50003979  0.58546764  0.35308088     1.58200
O2789       O  0.96142676  0.86923552  0.33553163    -0.80500
O2790       O  0.59336296  0.64968830  0.64889346    -0.82200
C2791       C  0.52900317  0.76057975  0.51275288     0.87000
C2792       C  0.98642772  0.71681101  0.49123080    -0.53200
C2793       C  0.96330583  0.72398169  0.46974521     0.10000
C2794       C  0.96678569  0.76324752  0.47523915     0.20900
C2795       C  0.54926377  0.79724228  0.48861524    -0.53900
C2796       C  0.52532539  0.80530742  0.46829690     0.10100
C2797       C  0.98289406  0.75717059  0.53961502    -0.53500
C2798       C  0.96062077  0.76576909  0.51799576     0.10600
H2799       H  0.98813074  0.69108147  0.48902910     0.15100
H2800       H  0.94832578  0.76948370  0.45731435     0.00900
H2801       H  0.57919650  0.81263674  0.48398783     0.15400
H2802       H  0.98220753  0.75809971  0.57021466     0.15200
C2803       C  0.77768619  0.96784193  0.47209796     0.87000
C2804       C  0.81042556  0.49788029  0.49322141    -0.53200
C2805       C  0.79954326  0.51837244  0.51511178     0.10000
C2806       C  0.76017062  0.51306719  0.50614371     0.20900
C2807       C  0.74242005  0.94494106  0.49807148    -0.53900
C2808       C  0.73121197  0.96652021  0.51909942     0.10100
C2809       C  0.77125561  0.49938138  0.44295086    -0.53500
C2810       C  0.75831575  0.51861079  0.46387390     0.10600
H2811       H  0.83543623  0.49561441  0.49845703     0.15100
H2812       H  0.75347546  0.53242730  0.52187973     0.00900
H2813       H  0.72917869  0.91507046  0.50119321     0.15400
H2814       H  0.77097008  0.49971965  0.41241484     0.15200
C2815       C  0.71525265  0.72750915  0.46557357     0.87000
C2816       C  0.70703630  0.70138159  0.49959902    -0.53200
C2817       C  0.73530534  0.71206250  0.52461921     0.10000
C2818       C  0.77042274  0.74897490  0.51220755     0.20900
C2819       C  0.72692166  0.76591932  0.48237860    -0.53900
C2820       C  0.75555225  0.77701954  0.50672587     0.10100
C2821       C  0.75197625  0.73187644  0.44789962    -0.53500
C2822       C  0.78099222  0.74313332  0.47191973     0.09900
H2823       H  0.67992918  0.67715607  0.50413450     0.15100
H2824       H  0.79414113  0.75824392  0.53125734     0.00900
H2825       H  0.71293524  0.78237592  0.47669449     0.15400
H2826       H  0.75672381  0.73016739  0.41809406     0.15200
C2827       C  0.79029347  0.94760317  0.44376559     0.00400
C2828       C  0.76708847  0.90976044  0.43604183    -0.11500
C2829       C  0.76812648  0.89575508  0.40040747     0.02600
C2830       C  0.79296083  0.91949201  0.37210533     0.00300
C2831       C  0.82062069  0.95487745  0.38190264    -0.11400
C2832       C  0.82013183  0.96878903  0.41769138     0.02500
H2833       H  0.74559461  0.89164389  0.45585986     0.15500
H2834       H  0.84014395  0.97329782  0.36058073     0.15500
C2835       C  0.85009817  0.51280672  0.41753824     0.37100
C2836       C  0.74113925  0.85780772  0.39239948     0.37000
N2837       N  0.87148996  0.54337435  0.42342468    -0.43200
N2838       N  0.71952078  0.82740577  0.38603831    -0.43200
C2839       C  0.78640120  0.87183817  0.57577803     0.00400
C2840       C  0.75673293  0.83712502  0.58661005    -0.11500
C2841       C  0.74562518  0.80671896  0.56339917     0.02600
C2842       C  0.76631563  0.80975460  0.53030256     0.00300
C2843       C  0.79653647  0.84423781  0.51953651    -0.11400
C2844       C  0.80670695  0.87549765  0.54217839     0.02500
H2845       H  0.74050356  0.83454819  0.61212859     0.15500
H2846       H  0.81148915  0.84689572  0.49315647     0.15500
C2847       C  0.83732353  0.91091817  0.53039272     0.37100
C2848       C  0.71158433  0.77342156  0.57302148     0.37000
N2849       N  0.86204234  0.93933734  0.52118313    -0.43200
N2850       N  0.68384594  0.74710324  0.58048843    -0.43200
C2851       C  0.88142412  0.77729700  0.40602782     0.00400
C2852       C  0.88172943  0.79984885  0.43579394    -0.11500
C2853       C  0.85142019  0.78732470  0.46184003     0.02600
C2854       C  0.81905322  0.75274965  0.45645558     0.00300
C2855       C  0.82087439  0.72889259  0.42929808    -0.11400
C2856       C  0.85147153  0.74041962  0.40468510     0.02500
H2857       H  0.90590239  0.82689674  0.43910370     0.15500
H2858       H  0.79730559  0.70135334  0.42619834     0.15500
C2859       C  0.85118805  0.71321037  0.37875374     0.37100
C2860       C  0.85578279  0.80937099  0.49469613     0.37000
N2861       N  0.84929278  0.69015365  0.69834883    -0.43200
N2862       N  0.86103643  0.82687256  0.52158619    -0.43200
C2863       C  0.91926947  0.79323313  0.61037057     0.00400
C2864       C  0.94619111  0.82240398  0.58795685    -0.11500
C2865       C  0.95304271  0.81586693  0.55050132     0.02600
C2866       C  0.93641586  0.77920055  0.53692706     0.00300
C2867       C  0.90479596  0.75240498  0.55646698    -0.11400
C2868       C  0.89535038  0.75972019  0.59242538     0.02500
H2869       H  0.96327385  0.84944643  0.59990044     0.15500
H2870       H  0.88977618  0.72465281  0.54546124     0.15500
C2871       C  0.86194381  0.73178420  0.61095671     0.37100
C2872       C  0.52325576  0.84624233  0.55584178     0.37000
N2873       N  0.83421812  0.70950789  0.62456502    -0.43200
N2874       N  0.55541783  0.86096973  0.55421281    -0.43200
C2875       C  0.57091939  0.86516712  0.36488900     0.00400
C2876       C  0.57991554  0.88556269  0.39817306    -0.11500
C2877       C  0.56435495  0.86772040  0.43296285     0.02600
C2878       C  0.53765760  0.82954365  0.43393299     0.00300
C2879       C  0.52486614  0.81146184  0.39990977    -0.11400
C2880       C  0.54300896  0.82761488  0.36605347     0.02500
H2881       H  0.60170170  0.91435771  0.39745195     0.15500
H2882       H  0.99680938  0.78218863  0.39456210     0.15500
C2883       C  0.53648142  0.80280967  0.33496733     0.37100
C2884       C  0.57656054  0.88952025  0.46644865     0.37000
N2885       N  0.02759948  0.81219034  0.30306608    -0.43200
N2886       N  0.58732917  0.90896281  0.49196990    -0.43200
C2887       C  0.64315100  0.92798737  0.60492118     0.00400
C2888       C  0.64071661  0.90443054  0.57517705    -0.11500
C2889       C  0.66699963  0.91670814  0.54529770     0.02600
C2890       C  0.69805715  0.95285894  0.54602631     0.00300
C2891       C  0.69799212  0.97705823  0.57442079    -0.11400
C2892       C  0.67120219  0.96502804  0.60341775     0.02500
H2893       H  0.61998961  0.87528001  0.57695977     0.15500
H2894       H  0.72176632  0.50806479  0.56990509     0.15500
C2895       C  0.67689028  0.98981931  0.63424493     0.37100
C2896       C  0.66084321  0.89133717  0.51485858     0.37000
N2897       N  0.68138858  0.51104948  0.65112554    -0.43200
N2898       N  0.65553757  0.87082516  0.49050505    -0.43200
C2899       C  0.70187979  0.56815709  0.40566685     0.00400
C2900       C  0.69340878  0.53156600  0.39718300    -0.11500
C2901       C  0.70812394  0.51292650  0.41860167     0.02600
C2902       C  0.73328424  0.53204793  0.44764457     0.00300
C2903       C  0.73503057  0.56512826  0.46066818    -0.11400
C2904       C  0.71778814  0.58226486  0.44081858     0.02500
H2905       H  0.67971984  0.51932865  0.37125054     0.15500
H2906       H  0.75210725  0.57912609  0.48444174     0.15500
C2907       C  0.72345005  0.61821914  0.45272293     0.37100
C2908       C  0.69775970  0.47481852  0.40950029     0.37000
N2909       N  0.72819185  0.64716181  0.46214317    -0.43200
N2910       N  0.68509101  0.94454476  0.40665201    -0.43200
C2911       C  0.72952731  0.69073467  0.56121708     0.00400
C2912       C  0.70537912  0.65173672  0.56225412    -0.11500
C2913       C  0.69759006  0.63043280  0.59577934     0.02600
C2914       C  0.71348537  0.64805287  0.62957995     0.00300
C2915       C  0.73656024  0.68679611  0.62886712    -0.11400
C2916       C  0.74534400  0.70799759  0.59556161     0.02500
H2917       H  0.69351293  0.63729911  0.53647144     0.15500
H2918       H  0.74974374  0.70045176  0.65468157     0.15500
C2919       C  0.77170251  0.74693189  0.59873686     0.37100
C2920       C  0.67539259  0.59047313  0.59408454     0.37000
N2921       N  0.79359073  0.77774493  0.60284138    -0.43200
N2922       N  0.65750585  0.55845929  0.59237400    -0.43200
C2923       C  0.68191735  0.71467615  0.43950443     0.00400
C2924       C  0.68395790  0.70337104  0.40252741    -0.11500
C2925       C  0.65814623  0.70045395  0.37582903     0.02600
C2926       C  0.62781406  0.70623676  0.38619242     0.00300
C2927       C  0.62209320  0.71111426  0.42430196    -0.11400
C2928       C  0.64845972  0.71493419  0.45100115     0.02500
H2929       H  0.70612224  0.69778541  0.39324202     0.15500
H2930       H  0.59824817  0.71466142  0.43276565     0.15500
C2931       C  0.64047673  0.72013294  0.48955845     0.37100
C2932       C  0.66585037  0.69501335  0.33743504     0.37000
N2933       N  0.63266725  0.72363588  0.52018996    -0.43200
N2934       N  0.67080066  0.69817360  0.64043969    -0.43200
C2935       C  0.55024481  0.74771594  0.53853383     0.00400
C2936       C  0.58658398  0.77279524  0.54881504    -0.11500
C2937       C  0.60145886  0.76651824  0.58150260     0.02600
C2938       C  0.58014966  0.73412116  0.60409313     0.00300
C2939       C  0.54635371  0.70669015  0.59108628    -0.11400
C2940       C  0.53091597  0.71317046  0.55906248     0.02500
H2941       H  0.60224141  0.79909711  0.53388252     0.15500
H2942       H  0.52981304  0.68191306  0.60812339     0.15500
C2943       C  0.97668896  0.67652639  0.56280606     0.37100
C2944       C  0.63728847  0.79559395  0.59291751     0.37000
N2945       N  0.94617806  0.65393695  0.55873421    -0.43200
N2946       N  0.66566617  0.81932493  0.60214908    -0.43200
C2947       C  0.93941509  0.69554787  0.44303869     0.00400
C2948       C  0.95363353  0.69568042  0.40670507    -0.11500
C2949       C  0.93425512  0.66602705  0.38243553     0.02600
C2950       C  0.90190464  0.63417761  0.39550587     0.00300
C2951       C  0.88850963  0.63372679  0.43233988    -0.11400
C2952       C  0.90640979  0.66423899  0.45574383     0.02500
H2953       H  0.50389745  0.72945204  0.39479287     0.15500
H2954       H  0.86249757  0.61020759  0.44204618     0.15500
C2955       C  0.88976776  0.66271168  0.49238210     0.37100
C2956       C  0.94534701  0.67076623  0.34326852     0.37000
N2957       N  0.87540495  0.66034171  0.52144192    -0.43200
N2958       N  0.48190783  0.68552749  0.30897729    -0.43200
C2959       C  0.81571761  0.53002846  0.55287440     0.00400
C2960       C  0.79298773  0.51178103  0.58428335    -0.11500
C2961       C  0.80441019  0.52331674  0.62066124     0.02600
C2962       C  0.84029599  0.55317704  0.62652015     0.00300
C2963       C  0.86475985  0.56915405  0.59524719    -0.11400
C2964       C  0.85279957  0.55747860  0.55848582     0.02500
H2965       H  0.76588892  0.48830009  0.58050829     0.15500
H2966       H  0.89245607  0.59199941  0.59933059     0.15500
C2967       C  0.87871584  0.57411818  0.52714777     0.37100
C2968       C  0.77766468  0.50493894  0.65106259     0.37000
N2969       N  0.89694898  0.08077097  0.50934711    -0.43200
N2970       N  0.75526918  0.48987117  0.67454839    -0.43200
N2971       N  0.90730029  0.61239109  0.99272248    -0.02900
C2972       C  0.88012497  0.60455497  0.96720454    -0.00300
C2973       C  0.87331298  0.63434759  0.96219959    -0.23200
C2974       C  0.84390470  0.60372043  0.71061070    -0.23400
C2975       C  0.87951472  0.60779028  0.70881077    -0.00400
H2976       H  0.85411908  0.63637265  0.94283101     0.13300
H2977       H  0.83352087  0.61754035  0.72958927     0.13400
N2978       N  0.57923895  0.70073007  0.00565543    -0.02900
C2979       C  0.56694595  0.72392015  0.99204011    -0.00300
C2980       C  0.57166158  0.75116755  0.01746283    -0.23200
C2981       C  0.60995438  0.75586424  0.69974576    -0.23400
C2982       C  0.60709546  0.72091468  0.69615394    -0.00400
H2983       H  0.56599865  0.77427838  0.01317059     0.13300
H2984       H  0.62176244  0.77477914  0.72286389     0.13400
N2985       N  0.69188135  0.60349503  0.68769191    -0.02900
C2986       C  0.71258506  0.59779045  0.71432505    -0.00300
C2987       C  0.75018807  0.61741669  0.70522112    -0.23200
C2988       C  0.75387896  0.65216766  0.01262437    -0.23400
C2989       C  0.71756019  0.64027555  0.00235106    -0.00400
H2990       H  0.77292344  0.61756505  0.72061469     0.13300
H2991       H  0.77883578  0.67376898  0.99898783     0.13400
N2992       N  0.60342019  0.91676618  0.00159599    -0.02900
C2993       C  0.63359652  0.91892012  0.98254193    -0.00300
C2994       C  0.65026082  0.90212268  0.00305208    -0.23200
C2995       C  0.62026182  0.87566480  0.69197230    -0.23400
C2996       C  0.59837796  0.89300896  0.69526407    -0.00400
H2997       H  0.67312823  0.89737687  0.99384915     0.13300
H2998       H  0.62081827  0.85516197  0.71116143     0.13400
N2999       N  0.91514543  0.81698625  0.00595636    -0.02900
C3000       C  0.92781678  0.79947991  0.98164610    -0.00300
C3001       C  0.93765501  0.77598177  0.00053186    -0.23200
C3002       C  0.92687830  0.76941019  0.70663391    -0.23400
C3003       C  0.91060324  0.79218530  0.71158367    -0.00400
H3004       H  0.94702080  0.75758294  0.98818276     0.13300
H3005       H  0.92716186  0.74985423  0.72721310     0.13400
N3006       N  0.81689046  0.92559729  0.95283580    -0.02900
C3007       C  0.78035854  0.91755969  0.65329581    -0.00300
C3008       C  0.75200710  0.91691927  0.63235758    -0.23200
C3009       C  0.77272018  0.92950077  0.91928982    -0.23400
C3010       C  0.80068894  0.91918362  0.91871768    -0.00400
H3011       H  0.72849863  0.92015488  0.64242471     0.13300
H3012       H  0.75243469  0.92390985  0.89770727     0.13400
O3013       O  0.96329247  0.94878177  0.95996910    -0.87800
C3014       C  0.93247886  0.49627059  0.70917706     0.88200
Mg3015     Mg  0.00675863  0.93342623  0.96811569     1.58100
O3016       O  0.99359295  0.56336569  0.96340656    -0.87500
O3017       O  0.95278181  0.98515065  0.92184750    -0.74900
C3018       C  0.65178236  0.58376937  0.68342802     0.93300
O3019       O  0.96231043  0.93399125  0.72278974    -0.74700
O3020       O  0.63456458  0.54846524  0.68798254    -0.82200
Mg3021     Mg  0.91370114  0.92398789  0.68354780     1.58000
C3022       C  0.56532900  0.66219026  0.99586342     0.93200
O3023       O  0.87064087  0.92231256  0.97057719    -0.80400
H3024       H  0.99698427  0.57590080  0.90845934    -0.05800
C3025       C  0.54761359  0.56420239  0.72068298     0.88100
O3026       O  0.54238975  0.98317845  0.94026032    -0.75000
O3027       O  0.92640884  0.98206982  0.68803947    -0.87700
O3028       O  0.53015669  0.64152338  0.99542712    -0.80500
C3029       C  0.91256874  0.57735335  0.67342309     0.93300
C3030       C  0.85647749  0.94192602  0.95729794     0.93200
Mg3031     Mg  0.57836750  0.58953221  0.97975891     1.58000
O3032       O  0.63481354  0.60158111  0.67248527    -0.80500
O3033       O  0.53237872  0.58155322  0.93845637    -0.74700
O3034       O  0.90380788  0.54702915  0.65633569    -0.80500
O3035       O  0.90082212  0.86187631  0.67989389    -0.82200
O3036       O  0.59604878  0.97039628  0.99946658    -0.80600
C3037       C  0.49739126  0.56951179  0.94059814     0.87600
O3038       O  0.56776025  0.53165210  0.97299150    -0.87700
O3039       O  0.54128682  0.57329328  0.68946931    -0.87800
O3040       O  0.55788346  0.53940221  0.72440707    -0.74900
Mg3041     Mg  0.93669347  0.52168356  0.95809345     1.58000
O3042       O  0.94586877  0.59759342  0.68457596    -0.82200
H3043       H  0.96614611  0.94572583  0.90394549    -0.06000
O3044       O  0.51781347  0.96648825  0.69129248    -0.87500
H3045       H  0.51133278  0.95412909  0.74646485    -0.05800
H3046       H  0.57942522  0.53540205  0.91761901    -0.06000
C3047       C  0.99738302  0.94624724  0.71958809     0.87600
C3048       C  0.96050557  0.95882301  0.92777195     0.88200
C3049       C  0.56385344  0.51778180  0.94139324     0.88200
H3050       H  0.54350228  0.57709205  0.74555999    -0.06000
O3051       O  0.95500934  0.52952396  0.71782019    -0.75000
Mg3052     Mg  0.57331801  0.50342437  0.68555168     1.58000
H3053       H  0.91157856  0.97425528  0.74270131    -0.06000
C3054       C  0.92365415  0.84895664  0.67500062     0.93200
O3055       O  0.54703765  0.91588034  0.98757717    -0.82200
C3056       C  0.58150861  0.93532908  0.99422051     0.93300
O3057       O  0.87558496  0.97695838  0.95180458    -0.82200
Mg3058     Mg  0.49676476  0.58892810  0.68672196     1.58200
O3059       O  0.95789714  0.87027362  0.66568421    -0.80500
O3060       O  0.58774340  0.64874440  0.99164684    -0.82200
C3061       C  0.50872106  0.75414040  0.85970686     0.87000
C3062       C  0.99741117  0.72277919  0.82081634    -0.53200
C3063       C  0.97295522  0.72916463  0.80088741     0.10000
C3064       C  0.97661720  0.76850933  0.80611725     0.20900
C3065       C  0.53199103  0.78927106  0.83482054    -0.53900
C3066       C  0.51092844  0.79885747  0.81192405     0.10100
C3067       C  0.99644743  0.76434881  0.86934938    -0.53500
C3068       C  0.97303432  0.77238040  0.84897256     0.10600
H3069       H  0.99914310  0.69707335  0.81841886     0.15100
H3070       H  0.95700102  0.77410147  0.78938190     0.00900
H3071       H  0.56213058  0.80396141  0.83302359     0.15400
H3072       H  0.99745336  0.76609373  0.89989588     0.15200
C3073       C  0.76381126  0.96532213  0.79868072     0.87000
C3074       C  0.81042154  0.49434656  0.81929827    -0.53200
C3075       C  0.80326699  0.51592643  0.84381623     0.10000
C3076       C  0.76513565  0.51507259  0.83764589     0.20900
C3077       C  0.72656923  0.94224409  0.82109076    -0.53900
C3078       C  0.71930718  0.96195664  0.84830801     0.10100
C3079       C  0.77285737  0.50427272  0.77256401    -0.53500
C3080       C  0.76276749  0.52387475  0.79630564     0.10600
H3081       H  0.83439369  0.48969696  0.82137329     0.15100
H3082       H  0.76183100  0.53536389  0.85542436     0.00900
H3083       H  0.70676311  0.91411821  0.81455663     0.15400
H3084       H  0.77132545  0.50652784  0.74232562     0.15200
C3085       C  0.71431872  0.73017713  0.80062957     0.87000
C3086       C  0.70662348  0.70564465  0.83579341    -0.53200
C3087       C  0.73475214  0.71809023  0.86100409     0.10000
C3088       C  0.76970951  0.75473968  0.84735954     0.20900
C3089       C  0.72554109  0.76929848  0.81540848    -0.53900
C3090       C  0.75450023  0.78222482  0.83952315     0.10100
C3091       C  0.75109451  0.73411854  0.78370228    -0.53500
C3092       C  0.78030306  0.74695998  0.80768721     0.09900
H3093       H  0.67993279  0.68101665  0.84096168     0.15100
H3094       H  0.79321746  0.76512432  0.86687185     0.00900
H3095       H  0.71143450  0.78524156  0.80793292     0.15400
H3096       H  0.75561262  0.73028837  0.75437997     0.15200
C3097       C  0.77447501  0.94720486  0.76649974     0.00400
C3098       C  0.75017435  0.91076014  0.75497942    -0.11500
C3099       C  0.75359508  0.89924370  0.71878994     0.02600
C3100       C  0.78266577  0.92363028  0.69419088     0.00300
C3101       C  0.81007878  0.95747299  0.70752358    -0.11400
C3102       C  0.80644432  0.96938234  0.74329108     0.02500
H3103       H  0.72687779  0.89175706  0.77249891     0.15500
H3104       H  0.83223619  0.97656879  0.68871606     0.15500
C3105       C  0.85019602  0.50741085  0.74467455     0.37100
C3106       C  0.72532466  0.86332976  0.70650038     0.37000
N3107       N  0.87515224  0.53602794  0.75102706    -0.43200
N3108       N  0.70253384  0.83466621  0.69665278    -0.43200
C3109       C  0.79204496  0.88457533  0.89869894     0.00400
C3110       C  0.75936146  0.85251585  0.91031119    -0.11500
C3111       C  0.74641480  0.81967636  0.89039185     0.02600
C3112       C  0.76698767  0.81776094  0.85915927     0.00300
C3113       C  0.79927967  0.84987858  0.84681149    -0.11400
C3114       C  0.81226689  0.88325196  0.86672954     0.02500
H3115       H  0.74325563  0.85352966  0.93456100     0.15500
H3116       H  0.81409434  0.84895667  0.82153351     0.15500
C3117       C  0.84609265  0.91552491  0.85410077     0.37100
C3118       C  0.71176645  0.78825124  0.90241125     0.37000
N3119       N  0.87342423  0.94130502  0.84415725    -0.43200
N3120       N  0.68394141  0.76297169  0.91186741    -0.43200
C3121       C  0.87919146  0.77957829  0.73988749     0.00400
C3122       C  0.87998951  0.80305393  0.76898512    -0.11500
C3123       C  0.85056344  0.79096231  0.79610392     0.02600
C3124       C  0.81830482  0.75603625  0.79226502     0.00300
C3125       C  0.81992266  0.73129788  0.76605080    -0.11400
C3126       C  0.84980464  0.74224437  0.74058353     0.02500
H3127       H  0.90406796  0.83035168  0.77118344     0.15500
H3128       H  0.79665813  0.70342176  0.76427434     0.15500
C3129       C  0.84937814  0.71373499  0.71634858     0.37100
C3130       C  0.85612458  0.81326194  0.82898451     0.37000
N3131       N  0.85069044  0.69795108  0.02467765    -0.43200
N3132       N  0.86221531  0.83085015  0.85590651    -0.43200
C3133       C  0.92676703  0.79975283  0.93976765     0.00400
C3134       C  0.95580839  0.82877633  0.91918600    -0.11500
C3135       C  0.96615833  0.82240948  0.88315183     0.02600
C3136       C  0.94951301  0.78599521  0.86877966     0.00300
C3137       C  0.91649861  0.75914582  0.88615833    -0.11400
C3138       C  0.90442989  0.76616733  0.92092896     0.02500
H3139       H  0.97235797  0.85546707  0.93203616     0.15500
H3140       H  0.90219712  0.73150058  0.87453621     0.15500
C3141       C  0.87011546  0.73750481  0.93743908     0.37100
C3142       C  0.48292089  0.85477526  0.86861775     0.37000
N3143       N  0.84177815  0.71422748  0.94890890    -0.43200
N3144       N  0.50411080  0.88045168  0.85118243    -0.43200
C3145       C  0.56787145  0.87897338  0.72360804     0.00400
C3146       C  0.57768580  0.88915488  0.76096857    -0.11500
C3147       C  0.55838729  0.86435701  0.79075984     0.02600
C3148       C  0.52760425  0.82940651  0.78324007     0.00300
C3149       C  0.51498732  0.82152972  0.74628056    -0.11400
C3150       C  0.53535579  0.84547935  0.71638500     0.02500
H3151       H  0.60308943  0.91449125  0.76658309     0.15500
H3152       H  0.99598890  0.78627742  0.72617165     0.15500
C3153       C  0.52689650  0.83175401  0.67850019     0.37100
C3154       C  0.57215793  0.87456498  0.82834647     0.37000
N3155       N  0.01794604  0.81158091  0.63198049    -0.43200
N3156       N  0.58291193  0.88259306  0.85858403    -0.43200
C3157       C  0.64283836  0.92760029  0.94228543     0.00400
C3158       C  0.64449732  0.89982241  0.92047811    -0.11500
C3159       C  0.66785944  0.90916250  0.88848386     0.02600
C3160       C  0.68637108  0.94671909  0.87514419     0.00300
C3161       C  0.67764450  0.97250655  0.89309909    -0.11400
C3162       C  0.65969298  0.96427715  0.92837179     0.02500
H3163       H  0.63160132  0.87137654  0.93143792     0.15500
H3164       H  0.72475271  0.51271984  0.89942358     0.15500
C3165       C  0.66658142  0.99478340  0.95279494     0.37100
C3166       C  0.67488493  0.88013551  0.87365249     0.37000
N3167       N  0.68873846  0.51616536  0.98381402    -0.43200
N3168       N  0.68027177  0.85646568  0.86245389    -0.43200
C3169       C  0.70063507  0.57294627  0.74804666     0.00400
C3170       C  0.68943646  0.53547260  0.74114661    -0.11500
C3171       C  0.70743347  0.51764933  0.75844978     0.02600
C3172       C  0.73666127  0.53764758  0.78376412     0.00300
C3173       C  0.74071854  0.57144480  0.79734731    -0.11400
C3174       C  0.72131009  0.58823927  0.78083678     0.02500
H3175       H  0.67054880  0.52161834  0.71874587     0.15500
H3176       H  0.76081638  0.58595453  0.81888138     0.15500
C3177       C  0.72894749  0.62468272  0.79306200     0.37100
C3178       C  0.69601718  0.47947828  0.74860109     0.37000
N3179       N  0.73523378  0.65385274  0.80330652    -0.43200
N3180       N  0.67655698  0.95397057  0.74139920    -0.43200
C3181       C  0.72863186  0.69829225  0.89855399     0.00400
C3182       C  0.70701677  0.65899127  0.90029918    -0.11500
C3183       C  0.69882752  0.63885656  0.93460133     0.02600
C3184       C  0.71096488  0.65794767  0.96861599     0.00300
C3185       C  0.73065716  0.69713074  0.96711795    -0.11400
C3186       C  0.74088316  0.71717559  0.93289742     0.02500
H3187       H  0.69780812  0.64354921  0.87449520     0.15500
H3188       H  0.74142324  0.71209117  0.99302008     0.15500
C3189       C  0.76603561  0.75655773  0.93482595     0.37100
C3190       C  0.68086022  0.59871783  0.93359497     0.37000
N3191       N  0.78714073  0.78780143  0.93777845    -0.43200
N3192       N  0.66647517  0.56654173  0.93238916    -0.43200
C3193       C  0.68070275  0.71602558  0.77478808     0.00400
C3194       C  0.68328320  0.70665674  0.73706247    -0.11500
C3195       C  0.65698386  0.70383854  0.71095693     0.02600
C3196       C  0.62586352  0.70769937  0.72266631     0.00300
C3197       C  0.61965550  0.71013666  0.76114769    -0.11400
C3198       C  0.64652102  0.71423435  0.78721873     0.02500
H3199       H  0.70640640  0.70327782  0.72651229     0.15500
H3200       H  0.59521801  0.71227250  0.77044698     0.15500
C3201       C  0.63831860  0.71796463  0.82615214     0.37100
C3202       C  0.66497044  0.70107964  0.67185650     0.37000
N3203       N  0.63024130  0.72004974  0.85710546    -0.43200
N3204       N  0.66182219  0.71225623  0.97338389    -0.43200
C3205       C  0.52797595  0.74107734  0.88794206     0.00400
C3206       C  0.56514012  0.76449669  0.89772133    -0.11500
C3207       C  0.57970005  0.75711383  0.93000433     0.02600
C3208       C  0.55709897  0.72578042  0.95299719     0.00300
C3209       C  0.52159504  0.70050092  0.94170175    -0.11400
C3210       C  0.50691332  0.70754055  0.90944849     0.02500
H3211       H  0.58236197  0.79016113  0.88240927     0.15500
H3212       H  0.50397948  0.67679270  0.95972779     0.15500
C3213       C  0.99147198  0.68319622  0.89164930     0.37100
C3214       C  0.61686847  0.78386139  0.94075127     0.37000
N3215       N  0.96077316  0.66017244  0.89078843    -0.43200
N3216       N  0.64648520  0.80548229  0.94949168    -0.43200
C3217       C  0.94724631  0.69944424  0.77642715     0.00400
C3218       C  0.95706158  0.70014469  0.73825635    -0.11500
C3219       C  0.93703010  0.66923924  0.71567980     0.02600
C3220       C  0.90858799  0.63599931  0.73200488     0.00300
C3221       C  0.90004192  0.63491395  0.77061856    -0.11400
C3222       C  0.91831251  0.66645519  0.79255806     0.02500
H3223       H  0.48829718  0.73436147  0.73724508     0.15500
H3224       H  0.87697446  0.61005020  0.78303012     0.15500
C3225       C  0.90572426  0.66462421  0.83118189     0.37100
C3226       C  0.94375172  0.67353089  0.67551843     0.37000
N3227       N  0.89474473  0.66264330  0.86186598    -0.43200
N3228       N  0.47541657  0.69321738  0.65003575    -0.43200
C3229       C  0.82571648  0.53256000  0.87807334     0.00400
C3230       C  0.80630122  0.52888817  0.91228422    -0.11500
C3231       C  0.82446303  0.54871806  0.94402580     0.02600
C3232       C  0.86318326  0.57227435  0.94224357     0.00300
C3233       C  0.88343264  0.57232318  0.90998536    -0.11400
C3234       C  0.86519897  0.55285932  0.87788647     0.02500
H3235       H  0.77659214  0.51112575  0.91410823     0.15500
H3236       H  0.91335622  0.59009429  0.90880179     0.15500
C3237       C  0.88822623  0.55681197  0.84515574     0.37100
C3238       C  0.80247378  0.54632726  0.97734255     0.37000
N3239       N  0.88914514  0.03083989  0.82872786    -0.43200
N3240       N  0.78466058  0.54429183  0.00390919    -0.43200
loop_ 
_geom_bond_atom_site_label_1 
_geom_bond_atom_site_label_2 
_geom_bond_distance 
_geom_bond_site_symmetry_2 
_ccdc_geom_bond_type 
N1            C2   1.369       .  A
N1          C275   1.365       .  A
N1          C329   1.451       .  S
C2            C3   1.380       .  A
C2          C262   1.487       .  S
C3          C274   1.360       .  A
C3            H6   1.083       .  S
C4            C5   1.376       .  A
C4          C543   1.362       .  A
C4            H7   1.078       .  S
C5          N541   1.365       .  A
C5          C250   1.475       .  S
N8            C9   1.356       .  A
N8          C282   1.360       .  A
N8           C52   1.445       .  S
C9           C10   1.382       .  A
C9          C238   1.469       .  S
C10         C281   1.362       .  A
C10          H13   1.083       .  S
C11          C12   1.378       .  A
C11         C550   1.359   1_554  A
C11          H14   1.083       .  S
C12         N548   1.361   1_554  A
C12         C226   1.473       .  S
N15          C16   1.371       .  A
N15         C559   1.375   1_554  A
N15          C48   1.451       .  S
C16          C17   1.377       .  A
C16         C199   1.485       .  S
C17         C558   1.351       .  A
C17          H20   1.078       .  S
C18          C19   1.379       .  A
C18         C287   1.350       .  A
C18          H21   1.079       .  S
C19         N285   1.373       .  A
C19         C214   1.483       .  S
N22          C23   1.361       .  A
N22         C296   1.356       .  A
N22          C86   1.446       .  S
C23          C24   1.385       .  A
C23         C187   1.473       .  S
C24         C295   1.359       .  A
C24          H27   1.082       .  S
C25          C26   1.380       .  A
C25         C564   1.363   1_554  A
C25          H28   1.083       .  S
C26         N562   1.355   1_554  A
C26         C175   1.463       .  S
N29          C30   1.364       .  A
N29         C303   1.367       .  A
N29         C354   1.448       .  S
C30          C31   1.375       .  A
C30         C163   1.485       .  S
C31         C302   1.366       .  A
C31          H34   1.082       .  S
C32          C33   1.384       .  A
C32         C571   1.365       .  A
C32          H35   1.081       .  S
C33         N569   1.367       .  A
C33         C151   1.493       .  S
N36          C40   1.353       .  A
N36         C307   1.352       .  A
N36          C60   1.433       .  S
C37         N576   1.352       .  A
C37          C38   1.375       .  A
C37         C130   1.471   1_556  S
C38         C579   1.367       .  A
C38          H41   1.082       .  S
C39          C40   1.387       .  A
C39         C308   1.367       .  A
C39          H42   1.080       .  S
C40         C139   1.464       .  S
O43         Mg45   2.171       .  S
O43        Mg321   2.182       .  S
O43          C78   1.237       .  S
C44         H893   1.081   1_545  S
C44         O867   1.236   1_545  S
C44          O81   1.270       .  A
Mg45       O1964   2.143       .  S
Mg45        O359   2.314       .  S
Mg45       O1705   2.319       .  S
Mg45       O1676   2.321       .  S
O46         Mg71   2.162       .  S
O46       Mg1978   2.175       .  S
O46        C1687   1.234       .  S
O47          C78   1.271       .  A
O47        Mg881   2.299       .  S
C48          O50   1.276       .  A
C48          O62   1.279       .  A
O49          C77   1.274       .  A
O49         Mg51   2.321       .  S
O50         Mg82   2.304       .  S
Mg51         O57   2.157       .  S
Mg51        O583   2.173   1_554  S
Mg51         O65   2.310       .  S
Mg51        O593   2.352   1_554  S
C52          O90   1.276       .  A
C52          O58   1.276       .  A
O53          C60   1.280       .  A
O53        Mg321   2.349       .  S
H54        C1687   1.081       .  S
C55          H80   1.081       .  S
C55          O69   1.234       .  S
C55          O70   1.269       .  A
O56         C889   1.276       .  A
O56       Mg1665   2.328       .  S
O57       Mg1421   2.171   1_554  S
O57         C854   1.236       .  S
O58        Mg358   2.313   1_455  S
C59         N541   1.455       .  S
C59          O72   1.281       .  A
C59          O64   1.277   1_554  A
C60          O87   1.269       .  A
Mg61         O68   2.205       .  S
Mg61        O339   2.174       .  S
Mg61         O63   2.299       .  S
Mg61         O90   2.302       .  S
Mg61        O332   2.350       .  S
O62        Mg601   2.343   1_554  S
O63          C67   1.268   1_455  A
O64        Mg611   2.312       .  S
O65          C84   1.275       .  A
O66          C86   1.280       .  A
O66       Mg1162   2.354       .  S
C67        H1674   1.081       .  S
C67        O1666   1.234       .  S
O68        Mg352   2.178       .  S
O68          C79   1.238       .  S
O69         Mg88   2.181       .  S
O69        Mg601   2.191   1_554  S
O70         Mg82   2.302       .  S
Mg71       O1137   2.167   1_545  S
Mg71        O857   2.283   1_545  S
Mg71        O334   2.292       .  S
Mg71        O897   2.262   1_545  S
O72       Mg1708   2.355       .  S
H73          C78   1.081       .  S
O74       Mg2205   2.157   1_554  S
O74        Mg892   2.205       .  S
O74        C1697   1.237       .  S
H75        C1697   1.081       .  S
H76          C79   1.081       .  S
C77        H1695   1.081       .  S
C77        O1694   1.237       .  S
C79         O866   1.275   1_545  A
O81       Mg1708   2.298       .  S
Mg82        O608   2.181   1_554  S
Mg82        O884   2.183   1_545  S
Mg82       O1416   2.344   1_544  S
H83         C854   1.081       .  S
C84         N569   1.443       .  S
C84          O89   1.280       .  A
O85          C86   1.271       .  A
O85       Mg1665   2.285       .  S
O87        Mg881   2.226       .  S
Mg88       O2206   2.163   1_454  S
Mg88        O598   2.320   1_554  S
Mg88       O1692   2.312   1_455  S
Mg88       O1701   2.309   1_455  S
O89        Mg585   2.327   1_554  S
C91          C95   1.547       .  S
C91        C1712   1.523   1_455  S
C91        C1717   1.527   1_455  S
C91         C235   1.527       .  S
C92        C1711   1.520       .  S
C92          H99   1.086       .  S
C92          C93   1.356       .  D
C93          C94   1.555       .  S
C93         C247   1.475       .  S
C94          C98   1.548       .  S
C94        C1716   1.547       .  S
C94         H100   1.111       .  S
C95         H101   1.081       .  S
C95          C96   1.371       .  D
C96        C1714   1.541   1_455  S
C96         C178   1.487       .  S
C97        C1711   1.527       .  S
C97         H102   1.088       .  S
C97          C98   1.359       .  D
C98         C166   1.490       .  S
C103        C107   1.559       .  S
C103        C914   1.527       .  S
C103        C919   1.533       .  S
C103        C127   1.530       .  S
C104        C913   1.532       .  S
C104        H111   1.084       .  S
C104        C105   1.363   1_565  D
C105        C106   1.549       .  S
C105        C259   1.491       .  S
C106        C110   1.531       .  S
C106        C918   1.536   1_545  S
C106        H112   1.105       .  S
C107        H113   1.074       .  S
C107        C108   1.375       .  D
C108        C916   1.537       .  S
C108        C190   1.505       .  S
C109        C913   1.531   1_545  S
C109        H114   1.085       .  S
C109        C110   1.357       .  D
C110        C202   1.492       .  S
C115        C116   1.521       .  S
C115        C121   1.537       .  S
C115        C119   1.533       .  S
C115        C223   1.531       .  S
C116        H123   1.085       .  S
C116        C117   1.367       .  D
C117        C118   1.560       .  S
C117        C211   1.506       .  S
C118        C122   1.542       .  S
C118        C120   1.541       .  S
C118        H124   1.105       .  S
C119        H125   1.087       .  S
C119        C120   1.362       .  D
C120        C142   1.466       .  S
C121        H126   1.081       .  S
C121        C122   1.367       .  D
C122        C154   1.499       .  S
C127        C128   1.409       .  A
C127        C132   1.421       .  A
C128        C129   1.397       .  A
C128        H133   1.079       .  S
C129        C130   1.407       .  A
C129        C136   1.445       .  S
C130        C131   1.396       .  A
C131        C132   1.395       .  A
C131        H134   1.082       .  S
C132        C945   1.441       .  S
C135        C942   1.442   1_545  S
C135        N137   1.156       .  T
C136        N138   1.157       .  T
C139        C140   1.401       .  A
C139        C144   1.405       .  A
C140        C141   1.384       .  A
C140        H145   1.086       .  S
C141        C142   1.403       .  A
C141        C148   1.441       .  S
C142        C143   1.405       .  A
C143        C144   1.404       .  A
C143        H146   1.083       .  S
C144        C147   1.443       .  S
C147        N149   1.157       .  T
C148        N150   1.155       .  T
C151        C152   1.404       .  A
C151        C156   1.421       .  A
C152        C153   1.413       .  A
C152        H157   1.084       .  S
C153        C154   1.417       .  A
C153        C160   1.440       .  S
C154        C155   1.400       .  A
C155        C156   1.390       .  A
C155        H158   1.085       .  S
C156        C159   1.444       .  S
C159        N701   1.156       .  T
C160        N162   1.157       .  T
N161        C429   1.155       .  T
C163        C164   1.393       .  A
C163        C168   1.417       .  A
C164        C165   1.393       .  A
C164        H169   1.081       .  S
C165        C166   1.414       .  A
C165       C1792   1.435       .  S
C166        C167   1.403       .  A
C167        C168   1.410       .  A
C167        H170   1.084       .  S
C168        C171   1.442       .  S
C171        N173   1.157       .  T
C172       C1785   1.439       .  S
C172        N174   1.156   1_655  T
C175        C176   1.400       .  A
C175        C180   1.406       .  A
C176        C177   1.398       .  A
C176        H181   1.084       .  S
C177        C178   1.415       .  A
C177        C184   1.442       .  S
C178        C179   1.400       .  A
C179        C180   1.393       .  A
C179       H1802   1.075   1_455  S
C180        C183   1.446       .  S
H182       C1799   1.076       .  S
C183       N1805   1.157   1_554  T
C184        N186   1.156       .  T
N185       C1803   1.157   1_556  T
C187        C188   1.405       .  A
C187        C192   1.399       .  A
C188        C189   1.398       .  A
C188        H193   1.086       .  S
C189        C190   1.420       .  A
C189        C196   1.444       .  S
C190        C191   1.414       .  A
C191        C192   1.397       .  A
C191       H1004   1.080       .  S
C192        C195   1.440       .  S
H194       C1001   1.080   1_545  S
C195       N1007   1.156       .  T
C196        N198   1.158       .  T
N197       C1005   1.156   1_545  T
C199        C200   1.398       .  A
C199        C204   1.420       .  A
C200        C201   1.398       .  A
C200        H205   1.076       .  S
C201        C202   1.420       .  A
C201        C208   1.445   1_545  S
C202        C203   1.397       .  A
C203        C204   1.404       .  A
C203        H206   1.085       .  S
C204        C207   1.441       .  S
C207        N209   1.155       .  T
C208       N1020   1.157       .  T
N210       C1018   1.157       .  T
C211        C212   1.414       .  A
C211        C216   1.416       .  A
C212        C213   1.400       .  A
C212        H217   1.083       .  S
C213        C214   1.404       .  A
C213        C220   1.439       .  S
C214        C215   1.410       .  A
C215        C216   1.401       .  A
C215        H218   1.086       .  S
C216        C219   1.442       .  S
C219        N221   1.158       .  T
C220        N222   1.156       .  T
C223        C224   1.409       .  A
C223        C228   1.421       .  A
C224        C225   1.392       .  A
C224        H229   1.078       .  S
C225        C226   1.403       .  A
C225        C232   1.433       .  S
C226        C227   1.399       .  A
C227        C228   1.397       .  A
C227        H230   1.085       .  S
C228        C231   1.442       .  S
C231        N233   1.156       .  T
C232        N774   1.153   1_554  T
N234        C502   1.156       .  T
C235        C236   1.407       .  A
C235        C240   1.424       .  A
C236        C237   1.394       .  A
C236        H241   1.077       .  S
C237        C238   1.412       .  A
C237        C244   1.447       .  S
C238        C239   1.392       .  A
C239        C240   1.395       .  A
C239        H242   1.082       .  S
C240       C1863   1.444   1_455  S
C243       C1860   1.445       .  S
C243        N245   1.157       .  T
C244        N246   1.157       .  T
C247        C248   1.402       .  A
C247        C252   1.409       .  A
C248        C249   1.401       .  A
C248       H1873   1.082       .  S
C249        C250   1.410       .  A
C249        C256   1.441       .  S
C250        C251   1.406       .  A
C251        C252   1.399       .  A
C251        H254   1.085       .  S
C252        C255   1.445       .  S
H253       C1868   1.084   1_455  S
C255        N257   1.157       .  T
C256       N1878   1.156   1_554  T
N258       C1876   1.155   1_455  T
C259        C260   1.400       .  A
C259        C264   1.416       .  A
C260        C261   1.393       .  A
C260        H265   1.085   1_545  S
C261        C262   1.412       .  A
C261        C268   1.441       .  S
C262        C263   1.404       .  A
C263        C264   1.407       .  A
C263        H266   1.085       .  S
C264        C267   1.440       .  S
C267       N1079   1.156       .  T
C268        N270   1.155       .  T
N269       C1077   1.157       .  T
N271        C545   1.364       .  A
N271        C272   1.363       .  A
N271        C599   1.455       .  S
C272        C273   1.381       .  A
C272        C532   1.477       .  S
C273        C544   1.358       .  A
C273        H276   1.083       .  S
C274        C275   1.378       .  A
C274        H277   1.078       .  S
C275        C520   1.475       .  S
N278        C552   1.359       .  A
N278        C279   1.356       .  A
N278        C322   1.444       .  S
C279        C280   1.382       .  A
C279        C508   1.471       .  S
C280        C551   1.365       .  A
C280        H283   1.082       .  S
C281        C282   1.381       .  A
C281        H284   1.083       .  S
C282        C496   1.475       .  S
N285        C286   1.365       .  A
N285        C318   1.454       .  S
C286        C287   1.379       .  A
C286        C469   1.471       .  S
C287        H290   1.083       .  S
C288        C557   1.350       .  A
C288        C289   1.381       .  A
C288        H291   1.080       .  S
C289        N555   1.374       .  A
C289        C484   1.489       .  S
N292        C566   1.355       .  A
N292        C293   1.360       .  A
N292        C356   1.448       .  S
C293        C294   1.382       .  A
C293        C457   1.463       .  S
C294        C565   1.360       .  A
C294        H297   1.082       .  S
C295        C296   1.377       .  A
C295        H298   1.083       .  S
C296        C445   1.465       .  S
N299        C573   1.368       .  A
N299        C300   1.364       .  A
N299        C624   1.449       .  S
C300        C301   1.375       .  A
C300        C433   1.488       .  S
C301        C572   1.364       .  A
C301        H304   1.082       .  S
C302        C303   1.389       .  A
C302        H305   1.081       .  S
C303        C421   1.488       .  S
N306        C310   1.357       .  A
N306        C577   1.354       .  A
N306        C330   1.437       .  S
C307        C308   1.374       .  A
C307        C400   1.470       .  S
C308        H311   1.081       .  S
C309        C578   1.369       .  A
C309        C310   1.390       .  A
C309        H312   1.083       .  S
C310        C409   1.474       .  S
O313       Mg315   2.160       .  S
O313       Mg591   2.175       .  S
O313        C348   1.237       .  S
C314       H1163   1.081   1_545  S
C314       O1137   1.234   1_545  S
C314        O351   1.268       .  A
Mg315      O2234   2.147       .  S
Mg315       O629   2.323       .  S
Mg315      O1975   2.289       .  S
Mg315      O1946   2.324       .  S
O316      Mg2248   2.172       .  S
O316       Mg341   2.148       .  S
O316       C1957   1.234       .  S
O317        C348   1.271       .  A
O317      Mg1151   2.298       .  S
C318        O320   1.278       .  A
C318        O332   1.279       .  A
O319        C347   1.273       .  A
O319       Mg321   2.316       .  S
O320       Mg352   2.316       .  S
Mg321       O327   2.181       .  S
Mg321       O335   2.336       .  S
C322        O360   1.274       .  A
C322        O328   1.279       .  A
O323        C330   1.277       .  A
O323       Mg591   2.337       .  S
H324       C1957   1.081       .  S
C325        H350   1.081       .  S
C325        O339   1.234       .  S
C325        O340   1.270       .  A
O326       C1159   1.275       .  A
O326      Mg1935   2.327       .  S
O327       Mg881   2.169       .  S
O327       C1124   1.235       .  S
O328       Mg628   2.329   1_455  S
C329        O342   1.279       .  A
C329        O334   1.274       .  A
C330        O357   1.274       .  A
Mg331       O338   2.196       .  S
Mg331       O609   2.188       .  S
Mg331       O602   2.348       .  S
Mg331       O333   2.292       .  S
Mg331       O360   2.285       .  S
O333        C337   1.267   1_455  A
O335        C354   1.278       .  A
O336        C356   1.282       .  A
O336      Mg1432   2.379       .  S
C337       H1944   1.081       .  S
C337       O1936   1.233       .  S
O338       Mg622   2.170       .  S
O338        C349   1.238       .  S
O339       Mg358   2.195   1_455  S
O340       Mg352   2.307       .  S
Mg341      O1407   2.173   1_545  S
Mg341      O1127   2.299   1_545  S
Mg341       O604   2.311       .  S
Mg341      O1167   2.253   1_545  S
O342      Mg1978   2.341       .  S
H343        C348   1.081       .  S
O344      Mg1665   2.157       .  S
O344      Mg1162   2.190       .  S
O344       C1967   1.236   1_455  S
H345       C1967   1.081   1_455  S
H346        C349   1.081       .  S
C347       H1965   1.081       .  S
C347       O1964   1.236       .  S
C349       O1136   1.275   1_545  A
O351      Mg1978   2.295       .  S
Mg352      O1154   2.186   1_545  S
Mg352       O876   2.359   1_545  S
H353       C1124   1.081       .  S
C354        O359   1.277       .  A
O355        C356   1.273       .  A
O355      Mg1935   2.285       .  S
O357      Mg1151   2.265       .  S
Mg358      O1666   2.172       .  S
Mg358      O1962   2.349       .  S
Mg358      O1971   2.296       .  S
C361       C1982   1.523   1_455  S
C361       C1987   1.533   1_455  S
C361        C365   1.545       .  S
C361        C505   1.532       .  S
C362       C1981   1.524       .  S
C362        H369   1.087       .  S
C362        C363   1.355       .  D
C363        C364   1.552       .  S
C363        C517   1.478       .  S
C364        C368   1.539       .  S
C364       C1986   1.539       .  S
C364        H370   1.108       .  S
C365        H371   1.082       .  S
C365        C366   1.371       .  D
C366       C1984   1.539   1_455  S
C366        C448   1.481       .  S
C367       C1981   1.529       .  S
C367        H372   1.088       .  S
C367        C368   1.360       .  D
C368        C436   1.485       .  S
C373       C1184   1.524       .  S
C373       C1189   1.529       .  S
C373        C377   1.558       .  S
C373        C397   1.527       .  S
C374       C1183   1.524       .  S
C374        H381   1.086       .  S
C374        C375   1.357   1_565  D
C375        C376   1.550       .  S
C375        C529   1.479       .  S
C376        C380   1.522       .  S
C376       C1188   1.531   1_545  S
C376        H382   1.102       .  S
C377        H383   1.079       .  S
C377        C378   1.380       .  D
C378       C1186   1.533       .  S
C378        C460   1.499       .  S
C379       C1183   1.532   1_545  S
C379        H384   1.081       .  S
C379        C380   1.354       .  D
C380        C472   1.490       .  S
C385        C386   1.527       .  S
C385        C391   1.536       .  S
C385        C389   1.537       .  S
C385        C493   1.538       .  S
C386        H393   1.085       .  S
C386        C387   1.369       .  D
C387        C388   1.561       .  S
C387        C481   1.513       .  S
C388        C392   1.541       .  S
C388        C390   1.540       .  S
C388        H394   1.101       .  S
C389        H395   1.086       .  S
C389        C390   1.364       .  D
C390        C412   1.473       .  S
C391        H396   1.078       .  S
C391        C392   1.367       .  D
C392        C424   1.503       .  S
C397        C398   1.410       .  A
C397        C402   1.425       .  A
C398        C399   1.398       .  A
C398        H403   1.079       .  S
C399        C400   1.406       .  A
C399        C406   1.445       .  S
C400        C401   1.393       .  A
C401        C402   1.394       .  A
C401        H404   1.083       .  S
C402       C1215   1.444       .  S
C405       C1212   1.444   1_545  S
C405        N407   1.157       .  T
C406        N408   1.157       .  T
C409        C410   1.404       .  A
C409        C414   1.407       .  A
C410        C411   1.389       .  A
C410        H415   1.086       .  S
C411        C412   1.401       .  A
C411        C418   1.440       .  S
C412        C413   1.406       .  A
C413        C414   1.407       .  A
C413        H416   1.084       .  S
C414        C417   1.442       .  S
C417        N419   1.157       .  T
C418        N420   1.155       .  T
C421        C422   1.403       .  A
C421        C426   1.413       .  A
C422        C423   1.413       .  A
C422        H427   1.085       .  S
C423        C424   1.422       .  A
C423        C430   1.440       .  S
C424        C425   1.402       .  A
C425        C426   1.388       .  A
C425        H428   1.085       .  S
C426        C429   1.440       .  S
C430        N432   1.157       .  T
N431        C699   1.156       .  T
C433        C434   1.399       .  A
C433        C438   1.416       .  A
C434        C435   1.401       .  A
C434        H439   1.081       .  S
C435        C436   1.411       .  A
C435       C2062   1.436       .  S
C436        C437   1.398       .  A
C437        C438   1.402       .  A
C437        H440   1.083       .  S
C438        C441   1.440       .  S
C441        N443   1.157       .  T
C442       C2055   1.438       .  S
C442        N444   1.157       .  T
C445        C446   1.399       .  A
C445        C450   1.410       .  A
C446        C447   1.395       .  A
C446        H451   1.085       .  S
C447        C448   1.411       .  A
C447        C454   1.441       .  S
C448        C449   1.401       .  A
C449        C450   1.399       .  A
C449       H2072   1.081       .  S
C450        C453   1.446       .  S
H452       C2069   1.079       .  S
C453       N2075   1.158       .  T
C454        N456   1.156       .  T
N455       C2073   1.157       .  T
C457        C458   1.403       .  A
C457        C462   1.398       .  A
C458        C459   1.399       .  A
C458        H463   1.084       .  S
C459        C460   1.416       .  A
C459        C466   1.444       .  S
C460        C461   1.412       .  A
C461        C462   1.392       .  A
C461       H1274   1.078       .  S
C462        C465   1.439       .  S
H464       C1271   1.077   1_545  S
C465       N1277   1.154       .  T
C466        N468   1.158       .  T
N467       C1275   1.155   1_545  T
C469        C470   1.399       .  A
C469        C474   1.412       .  A
C470        C471   1.399       .  A
C470        H475   1.082       .  S
C471        C472   1.420       .  A
C471        C478   1.444   1_545  S
C472        C473   1.399       .  A
C473        C474   1.397       .  A
C473        H476   1.084       .  S
C474        C477   1.443       .  S
C477        N479   1.156       .  T
C478       N1290   1.157       .  T
N480       C1288   1.156       .  T
C481        C482   1.418       .  A
C481        C486   1.418       .  A
C482        C483   1.407       .  A
C482        H487   1.083       .  S
C483        C484   1.406       .  A
C483        C490   1.441       .  S
C484        C485   1.408       .  A
C485        C486   1.399       .  A
C485        H488   1.087       .  S
C486        C489   1.442       .  S
C489        N491   1.158       .  T
C490        N492   1.157       .  T
C493        C494   1.414       .  A
C493        C498   1.421       .  A
C494        C495   1.394       .  A
C494        H499   1.075       .  S
C495        C496   1.405       .  A
C495        C502   1.441       .  S
C496        C497   1.400       .  A
C497        C498   1.398       .  A
C497        H500   1.086       .  S
C498        C501   1.444       .  S
C501        N503   1.157       .  T
N504        C772   1.155       .  T
C505        C506   1.409       .  A
C505        C510   1.427       .  A
C506        C507   1.396       .  A
C506        H511   1.078       .  S
C507        C508   1.412       .  A
C507        C514   1.446       .  S
C508        C509   1.389       .  A
C509        C510   1.394       .  A
C509        H512   1.082       .  S
C510       C2133   1.440   1_455  S
C513       C2130   1.444       .  S
C513        N515   1.157       .  T
C514        N516   1.157       .  T
C517        C518   1.405       .  A
C517        C522   1.406       .  A
C518        C519   1.404       .  A
C518       H2143   1.083       .  S
C519        C520   1.411       .  A
C519        C526   1.441       .  S
C520        C521   1.404       .  A
C521        C522   1.397       .  A
C521        H524   1.086       .  S
C522        C525   1.443       .  S
H523       C2138   1.084       .  S
C525        N527   1.157       .  T
C526       N2148   1.156       .  T
N528       C2146   1.156       .  T
C529        C530   1.396       .  A
C529        C534   1.410       .  A
C530        C531   1.388       .  A
C530        H535   1.079   1_545  S
C531        C532   1.408       .  A
C531        C538   1.443       .  S
C532        C533   1.406       .  A
C533        C534   1.407       .  A
C533        H536   1.083       .  S
C534        C537   1.443       .  S
C537       N1349   1.157       .  T
C538        N540   1.156       .  T
N539       C1347   1.156       .  T
N541        C542   1.366   1_554  A
C542        C543   1.382   1_556  A
C542        C802   1.486       .  S
C543        H546   1.083       .  S
C544        C545   1.380       .  A
C544        H547   1.081       .  S
C545        C790   1.470       .  S
N548        C549   1.365       .  A
N548        C592   1.449       .  S
C549        C550   1.385       .  A
C549        C778   1.478       .  S
C550        H553   1.082       .  S
C551        C552   1.382       .  A
C551        H554   1.083       .  S
C552        C766   1.477       .  S
N555        C556   1.368       .  A
N555        C588   1.454       .  S
C556        C557   1.380       .  A
C556        C739   1.479       .  S
C557        H560   1.082       .  S
C558        C559   1.379   1_554  A
C558        H561   1.078   1_554  S
C559        C754   1.493       .  S
N562        C563   1.358       .  A
N562        C626   1.446       .  S
C563        C564   1.382       .  A
C563        C727   1.461       .  S
C564        H567   1.083       .  S
C565        C566   1.378       .  A
C565        H568   1.082       .  S
C566        C715   1.462       .  S
N569        C570   1.360   1_554  A
C570        C571   1.374   1_556  A
C570        C703   1.487       .  S
C571        H574   1.082   1_554  S
C572        C573   1.386       .  A
C572        H575   1.082       .  S
C573        C691   1.490       .  S
N576        C580   1.354       .  A
N576        C600   1.435       .  S
C577        C578   1.376       .  A
C577        C670   1.481       .  S
C578        H581   1.082       .  S
C579        C580   1.390       .  A
C579        H582   1.083       .  S
C580        C679   1.464       .  S
O583       Mg585   2.161       .  S
O583        C618   1.236       .  S
C584       H1433   1.081   1_545  S
C584       O1407   1.235   1_545  S
C584        O621   1.270       .  A
Mg585      O1694   2.145   1_556  S
Mg585      O2245   2.293       .  S
Mg585      O2216   2.329       .  S
O586      Mg1708   2.162   1_556  S
O586       Mg611   2.133       .  S
O586       C2227   1.233       .  S
O587        C618   1.269       .  A
O587      Mg1421   2.292       .  S
C588        O590   1.276       .  A
C588        O602   1.278       .  A
O589        C617   1.272       .  A
O589       Mg591   2.313       .  S
O590       Mg622   2.311       .  S
Mg591       O597   2.190       .  S
Mg591       O605   2.338       .  S
C592        O630   1.275       .  A
C592        O598   1.276       .  A
O593        C600   1.280       .  A
H594       C2227   1.081       .  S
C595        H620   1.081       .  S
C595        O609   1.236       .  S
C595        O610   1.272       .  A
O596       C1429   1.275       .  A
O596      Mg2205   2.325       .  S
O597      Mg1151   2.170       .  S
O597       C1394   1.236       .  S
C599        O612   1.279       .  A
C599        O604   1.277       .  A
C600        O627   1.270       .  A
Mg601       O608   2.192       .  S
Mg601       O603   2.292       .  S
Mg601       O630   2.300       .  S
O603        C607   1.267       .  A
O605        C624   1.278       .  A
O606        C626   1.280       .  A
O606       Mg892   2.355   1_556  S
C607       H2214   1.081   1_455  S
C607       O2206   1.233   1_455  S
O608        C619   1.237       .  S
O609       Mg628   2.202   1_455  S
O610       Mg622   2.313       .  S
Mg611       O867   2.170   1_546  S
Mg611      O1397   2.297   1_545  S
Mg611      O1437   2.243   1_545  S
O612      Mg2248   2.343       .  S
H613        C618   1.081       .  S
O614      Mg1935   2.154       .  S
O614      Mg1432   2.196       .  S
O614       C2237   1.236   1_455  S
H615       C2237   1.081   1_455  S
H616        C619   1.081       .  S
C617       H2235   1.081       .  S
C617       O2234   1.235       .  S
C619       O1406   1.273   1_545  A
O621      Mg2248   2.301       .  S
Mg622      O1424   2.190   1_545  S
Mg622      O1146   2.373   1_545  S
H623       C1394   1.081       .  S
C624        O629   1.279       .  A
O625        C626   1.273       .  A
O625      Mg2205   2.286       .  S
O627      Mg1421   2.239       .  S
Mg628      O1936   2.166       .  S
Mg628      O2232   2.364       .  S
Mg628      O2241   2.302       .  S
C631       C2252   1.520   1_455  S
C631       C2257   1.534   1_455  S
C631        C635   1.545       .  S
C631        C775   1.530       .  S
C632       C2251   1.523       .  S
C632        H639   1.087       .  S
C632        C633   1.353       .  D
C633        C634   1.548       .  S
C633        C787   1.471       .  S
C634        C638   1.539       .  S
C634       C2256   1.542       .  S
C634        H640   1.111       .  S
C635        H641   1.082       .  S
C635        C636   1.370       .  D
C636       C2254   1.541   1_455  S
C636        C718   1.482       .  S
C637       C2251   1.529       .  S
C637        H642   1.088       .  S
C637        C638   1.361       .  D
C638        C706   1.483       .  S
C643       C1454   1.534       .  S
C643       C1459   1.530       .  S
C643        C647   1.562       .  S
C643        C667   1.533       .  S
C644       C1453   1.536       .  S
C644        H651   1.086       .  S
C644        C645   1.365   1_565  D
C645        C646   1.550       .  S
C645        C799   1.493       .  S
C646        C650   1.520       .  S
C646       C1458   1.539   1_545  S
C646        H652   1.098       .  S
C647        H653   1.078       .  S
C647        C648   1.382       .  D
C648       C1456   1.536       .  S
C648        C730   1.503       .  S
C649       C1453   1.527   1_545  S
C649        H654   1.084       .  S
C649        C650   1.347       .  D
C650        C742   1.485       .  S
C655        C656   1.532       .  S
C655        C661   1.541       .  S
C655        C659   1.534       .  S
C655        C763   1.538       .  S
C656        H663   1.085       .  S
C656        C657   1.371       .  D
C657        C658   1.559       .  S
C657        C751   1.514       .  S
C658        C662   1.537       .  S
C658        C660   1.538       .  S
C658        H664   1.101       .  S
C659        H665   1.087       .  S
C659        C660   1.361       .  D
C660        C682   1.466       .  S
C661        H666   1.079       .  S
C661        C662   1.367       .  D
C662        C694   1.499       .  S
C667        C668   1.411       .  A
C667        C672   1.426       .  A
C668        C669   1.400       .  A
C668        H673   1.079       .  S
C669        C670   1.409       .  A
C669        C676   1.446       .  S
C670        C671   1.397       .  A
C671        C672   1.399       .  A
C671        H674   1.082       .  S
C672       C1485   1.445       .  S
C675       C1482   1.444   1_545  S
C675        N677   1.157       .  T
C676        N678   1.157       .  T
C679        C680   1.401       .  A
C679        C684   1.405       .  A
C680        C681   1.384       .  A
C680        H685   1.086       .  S
C681        C682   1.401       .  A
C681        C688   1.439       .  S
C682        C683   1.405       .  A
C683        C684   1.404       .  A
C683        H686   1.084       .  S
C684        C687   1.442       .  S
C687        N689   1.157       .  T
C688        N690   1.154       .  T
C691        C692   1.401       .  A
C691        C696   1.419       .  A
C692        C693   1.411       .  A
C692        H697   1.085       .  S
C693        C694   1.420       .  A
C693        C700   1.440       .  S
C694        C695   1.400       .  A
C695        C696   1.390       .  A
C695        H698   1.085       .  S
C696        C699   1.442       .  S
C700        N702   1.157       .  T
C703        C704   1.401       .  A
C703        C708   1.412       .  A
C704        C705   1.403       .  A
C704        H709   1.081       .  S
C705        C706   1.410       .  A
C705       C2332   1.438       .  S
C706        C707   1.397       .  A
C707        C708   1.400       .  A
C707        H710   1.082       .  S
C708        C711   1.438       .  S
C711        N713   1.155       .  T
C712       C2325   1.436       .  S
C712        N714   1.156   1_655  T
C715        C716   1.396       .  A
C715        C720   1.406       .  A
C716        C717   1.395       .  A
C716        H721   1.085       .  S
C717        C718   1.413       .  A
C717        C724   1.440       .  S
C718        C719   1.400       .  A
C719        C720   1.398       .  A
C719       H2342   1.076   1_455  S
C720        C723   1.445       .  S
H722       C2339   1.077       .  S
C723       N2345   1.157       .  T
C724        N726   1.156       .  T
N725       C2343   1.157       .  T
C727        C728   1.404       .  A
C727        C732   1.396       .  A
C728        C729   1.403       .  A
C728        H733   1.086       .  S
C729        C730   1.419       .  A
C729        C736   1.443       .  S
C730        C731   1.412       .  A
C731        C732   1.384       .  A
C731       H1544   1.075       .  S
C732        C735   1.440       .  S
H734       C1541   1.072   1_545  S
C735       N1547   1.154       .  T
C736        N738   1.158       .  T
N737       C1545   1.156   1_545  T
C739        C740   1.399       .  A
C739        C744   1.416       .  A
C740        C741   1.398       .  A
C740        H745   1.076       .  S
C741        C742   1.418       .  A
C741        C748   1.446   1_545  S
C742        C743   1.396       .  A
C743        C744   1.396       .  A
C743        H746   1.084       .  S
C744        C747   1.438       .  S
C747        N749   1.154       .  T
C748       N1560   1.157       .  T
N750       C1558   1.157       .  T
C751        C752   1.419       .  A
C751        C756   1.418       .  A
C752        C753   1.411       .  A
C752        H757   1.083       .  S
C753        C754   1.408       .  A
C753        C760   1.441       .  S
C754        C755   1.407       .  A
C755        C756   1.397       .  A
C755        H758   1.086       .  S
C756        C759   1.441       .  S
C759        N761   1.158       .  T
C760        N762   1.157       .  T
C763        C764   1.411       .  A
C763        C768   1.421       .  A
C764        C765   1.395       .  A
C764        H769   1.076       .  S
C765        C766   1.407       .  A
C765        C772   1.439       .  S
C766        C767   1.399       .  A
C767        C768   1.398       .  A
C767        H770   1.086       .  S
C768        C771   1.441       .  S
C771        N773   1.156       .  T
C775        C776   1.405       .  A
C775        C780   1.425       .  A
C776        C777   1.393       .  A
C776        H781   1.078       .  S
C777        C778   1.416       .  A
C777        C784   1.446       .  S
C778        C779   1.393       .  A
C779        C780   1.396       .  A
C779        H782   1.078       .  S
C780       C2403   1.445   1_455  S
C783       C2400   1.443       .  S
C783        N785   1.157       .  T
C784        N786   1.157       .  T
C787        C788   1.401       .  A
C787        C792   1.408       .  A
C788        C789   1.399       .  A
C788       H2413   1.082       .  S
C789        C790   1.409       .  A
C789        C796   1.439       .  S
C790        C791   1.404       .  A
C791        C792   1.396       .  A
C791        H794   1.086       .  S
C792        C795   1.444       .  S
H793       C2408   1.081       .  S
C795        N797   1.157       .  T
C796       N2418   1.155       .  T
N798       C2416   1.157       .  T
C799        C800   1.400       .  A
C799        C804   1.411       .  A
C800        C801   1.393       .  A
C800        H805   1.077   1_545  S
C801        C802   1.410       .  A
C801        C808   1.445       .  S
C802        C803   1.408       .  A
C803        C804   1.410       .  A
C803        H806   1.084       .  S
C804        C807   1.440       .  S
C807       N1619   1.157       .  T
C808        N810   1.157   1_546  T
N809       C1617   1.157       .  T
N811       C1085   1.368       .  A
N811        C812   1.368       .  A
N811       C1139   1.460       .  S
C812        C813   1.381       .  A
C812       C1072   1.480       .  S
C813       C1084   1.355       .  A
C813        H816   1.083       .  S
C814       C1353   1.362       .  A
C814        C815   1.379       .  A
C814        H817   1.081       .  S
C815       N1351   1.363       .  A
C815       C1060   1.465       .  S
N818       C1092   1.359       .  A
N818        C819   1.355       .  A
N818        C862   1.445       .  S
C819        C820   1.382       .  A
C819       C1048   1.469       .  S
C820       C1091   1.363       .  A
C820        H823   1.082       .  S
C821       C1360   1.358   1_554  A
C821        C822   1.379       .  A
C821        H824   1.083       .  S
C822       N1358   1.358   1_554  A
C822       C1036   1.469       .  S
N825       C1369   1.379       .  A
N825        C826   1.375       .  A
N825        C858   1.456       .  S
C826        C827   1.379       .  A
C826       C1009   1.490       .  S
C827       C1368   1.348       .  A
C827        H830   1.082       .  S
C828       C1097   1.353       .  A
C828        C829   1.379       .  A
C828        H831   1.080       .  S
C829       N1095   1.373       .  A
C829       C1024   1.484       .  S
N832       C1106   1.359       .  A
N832        C833   1.362       .  A
N832        C896   1.446       .  S
C833        C834   1.386       .  A
C833        C997   1.477       .  S
C834       C1105   1.361       .  A
C834        H837   1.082       .  S
C835       C1374   1.362   1_554  A
C835        C836   1.380       .  A
C835        H838   1.083       .  S
C836       N1372   1.356   1_554  A
C836        C985   1.464       .  S
N839       C1113   1.364       .  A
N839        C840   1.357       .  A
N839       C1164   1.444       .  S
C840        C841   1.376       .  A
C840        C973   1.481       .  S
C841       C1112   1.367       .  A
C841        H844   1.082       .  S
C842       C1381   1.367       .  A
C842        C843   1.386       .  A
C842        H845   1.081       .  S
C843       N1379   1.367       .  A
C843        C961   1.494       .  S
N846        C850   1.357       .  A
N846       C1117   1.353       .  A
N846        C870   1.437       .  S
C847       N1386   1.353       .  A
C847        C848   1.375       .  A
C847        C940   1.475   1_556  S
C848       C1389   1.368       .  A
C848        H851   1.082       .  S
C849       C1118   1.366       .  A
C849        C850   1.389       .  A
C849        H852   1.082       .  S
C850        C949   1.468       .  S
O853       Mg855   2.139       .  S
O853      Mg1131   2.181       .  S
O853        C888   1.235       .  S
C854        O891   1.269       .  A
Mg855      O2774   2.157       .  S
Mg855      O1169   2.286       .  S
Mg855      O2515   2.268       .  S
Mg855      O2486   2.315       .  S
O856      Mg2788   2.164       .  S
O856       Mg881   2.131       .  S
O856       C2497   1.232       .  S
O857        C888   1.267       .  A
C858        O860   1.279       .  A
C858        O872   1.278       .  A
O859        C887   1.274       .  A
O859       Mg861   2.326       .  S
O860       Mg892   2.332       .  S
Mg861      O1393   2.174   1_554  S
Mg861       O867   2.168       .  S
Mg861       O875   2.321       .  S
Mg861      O1403   2.352   1_554  S
C862        O900   1.277       .  A
C862        O868   1.275       .  A
O863        C870   1.279       .  A
O863      Mg1131   2.342       .  S
H864       C2497   1.081       .  S
C865        H890   1.081       .  S
C865        O879   1.234       .  S
C865        O880   1.269       .  A
O866      Mg2475   2.324       .  S
O868      Mg1168   2.304   1_455  S
C869       N1351   1.455       .  S
C869        O882   1.279       .  A
C869        O874   1.274   1_554  A
C870        O897   1.274       .  A
Mg871       O878   2.212       .  S
Mg871      O1149   2.178       .  S
Mg871      O1142   2.339       .  S
Mg871       O873   2.292       .  S
Mg871       O900   2.308       .  S
O872      Mg1411   2.340   1_554  S
O873        C877   1.266   1_455  A
O874      Mg1421   2.292       .  S
O875        C894   1.275       .  A
O876        C896   1.281       .  A
C877       H2484   1.081       .  S
C877       O2476   1.232       .  S
O878      Mg1162   2.180       .  S
O878        C889   1.238       .  S
O879      Mg1411   2.184   1_554  S
O879       Mg898   2.173       .  S
O880       Mg892   2.299       .  S
Mg881      O1144   2.323       .  S
O882      Mg2518   2.360       .  S
H883        C888   1.081       .  S
O884      Mg3015   2.166   1_554  S
O884       C2507   1.236       .  S
H885       C2507   1.081       .  S
H886        C889   1.081       .  S
C887       H2505   1.081       .  S
C887       O2504   1.237       .  S
O891      Mg2518   2.290       .  S
Mg892      O1418   2.176   1_554  S
C894       N1379   1.444       .  S
C894        O899   1.278       .  A
O895        C896   1.272       .  A
O895      Mg2475   2.289       .  S
Mg898      O3016   2.158   1_454  S
Mg898      O1408   2.303   1_554  S
Mg898      O2502   2.298   1_455  S
Mg898      O2511   2.301   1_455  S
O899      Mg1395   2.313   1_554  S
C901       C2522   1.523   1_455  S
C901       C2527   1.527   1_455  S
C901        C905   1.548       .  S
C901       C1045   1.526       .  S
C902       C2521   1.511       .  S
C902        H909   1.086       .  S
C902        C903   1.355       .  D
C903        C904   1.557       .  S
C903       C1057   1.469       .  S
C904        C908   1.542       .  S
C904       C2526   1.535       .  S
C904        H910   1.111       .  S
C905        H911   1.082       .  S
C905        C906   1.375       .  D
C906       C2524   1.539   1_455  S
C906        C988   1.487       .  S
C907       C2521   1.530       .  S
C907        H912   1.088       .  S
C907        C908   1.359       .  D
C908        C976   1.492       .  S
C913        C917   1.560       .  S
C913        C937   1.535       .  S
C914        H921   1.085       .  S
C914        C915   1.360       .  D
C915        C916   1.549       .  S
C915       C1069   1.487       .  S
C916        C920   1.531       .  S
C916        H922   1.105       .  S
C917        H923   1.072       .  S
C917        C918   1.375       .  D
C918       C1000   1.506       .  S
C919        H924   1.086       .  S
C919        C920   1.358       .  D
C920       C1012   1.493       .  S
C925        C926   1.520       .  S
C925        C931   1.538       .  S
C925        C929   1.532       .  S
C925       C1033   1.528       .  S
C926        H933   1.085       .  S
C926        C927   1.367       .  D
C927        C928   1.565       .  S
C927       C1021   1.511       .  S
C928        C932   1.546       .  S
C928        C930   1.543       .  S
C928        H934   1.106       .  S
C929        H935   1.087       .  S
C929        C930   1.359       .  D
C930        C952   1.466       .  S
C931        H936   1.081       .  S
C931        C932   1.366       .  D
C932        C964   1.501       .  S
C937        C938   1.412       .  A
C937        C942   1.421       .  A
C938        C939   1.399       .  A
C938        H943   1.077       .  S
C939        C940   1.407       .  A
C939        C946   1.446       .  S
C940        C941   1.395       .  A
C941        C942   1.395       .  A
C941        H944   1.081       .  S
C945        N947   1.155       .  T
C946        N948   1.157       .  T
C949        C950   1.405       .  A
C949        C954   1.405       .  A
C950        C951   1.385       .  A
C950        H955   1.086       .  S
C951        C952   1.402       .  A
C951        C958   1.442       .  S
C952        C953   1.403       .  A
C953        C954   1.403       .  A
C953        H956   1.083       .  S
C954        C957   1.442       .  S
C957        N959   1.157       .  T
C958        N960   1.156       .  T
C961        C962   1.403       .  A
C961        C966   1.420       .  A
C962        C963   1.413       .  A
C962        H967   1.085       .  S
C963        C964   1.418       .  A
C963        C970   1.439       .  S
C964        C965   1.401       .  A
C965        C966   1.393       .  A
C965        H968   1.085       .  S
C966        C969   1.444       .  S
C969       N1511   1.157       .  T
C970        N972   1.157       .  T
N971       C1239   1.156       .  T
C973        C974   1.393       .  A
C973        C978   1.413       .  A
C974        C975   1.394       .  A
C974        H979   1.084       .  S
C975        C976   1.421       .  A
C975       C2602   1.444       .  S
C976        C977   1.401       .  A
C977        C978   1.407       .  A
C977        H980   1.084       .  S
C978        C981   1.440       .  S
C981        N983   1.157       .  T
C982       C2595   1.438       .  S
C982        N984   1.156   1_655  T
C985        C986   1.400       .  A
C985        C990   1.407       .  A
C986        C987   1.397       .  A
C986        H991   1.084       .  S
C987        C988   1.414       .  A
C987        C994   1.442       .  S
C988        C989   1.404       .  A
C989        C990   1.395       .  A
C989       H2612   1.078   1_455  S
C990        C993   1.446       .  S
H992       C2609   1.067       .  S
C993       N2615   1.157   1_554  T
C994        N996   1.156       .  T
N995       C2613   1.157   1_556  T
C997        C998   1.405       .  A
C997       C1002   1.401       .  A
C998        C999   1.398       .  A
C998       H1003   1.086       .  S
C999       C1000   1.420       .  A
C999       C1006   1.443       .  S
C1000      C1001   1.414       .  A
C1001      C1002   1.398       .  A
C1002      C1005   1.439       .  S
C1006      N1008   1.158       .  T
C1009      C1010   1.397       .  A
C1009      C1014   1.421       .  A
C1010      C1011   1.399       .  A
C1010      H1015   1.072       .  S
C1011      C1012   1.419       .  A
C1011      C1018   1.446       .  S
C1012      C1013   1.398       .  A
C1013      C1014   1.404       .  A
C1013      H1016   1.084       .  S
C1014      C1017   1.442       .  S
C1017      N1019   1.156       .  T
C1021      C1022   1.415       .  A
C1021      C1026   1.416       .  A
C1022      C1023   1.401       .  A
C1022      H1027   1.082       .  S
C1023      C1024   1.404       .  A
C1023      C1030   1.439       .  S
C1024      C1025   1.409       .  A
C1025      C1026   1.404       .  A
C1025      H1028   1.086       .  S
C1026      C1029   1.441       .  S
C1029      N1031   1.158       .  T
C1030      N1032   1.156       .  T
C1033      C1034   1.409       .  A
C1033      C1038   1.422       .  A
C1034      C1035   1.391       .  A
C1034      H1039   1.077       .  S
C1035      C1036   1.404       .  A
C1035      C1042   1.435       .  S
C1036      C1037   1.397       .  A
C1037      C1038   1.394       .  A
C1037      H1040   1.086       .  S
C1038      C1041   1.443       .  S
C1041      N1043   1.156       .  T
C1042      N1584   1.154   1_554  T
N1044      C1312   1.156       .  T
C1045      C1046   1.408       .  A
C1045      C1050   1.425       .  A
C1046      C1047   1.396       .  A
C1046      H1051   1.079       .  S
C1047      C1048   1.411       .  A
C1047      C1054   1.447       .  S
C1048      C1049   1.390       .  A
C1049      C1050   1.394       .  A
C1049      H1052   1.081       .  S
C1050      C2673   1.446   1_455  S
C1053      C2670   1.444       .  S
C1053      N1055   1.157       .  T
C1054      N1056   1.158       .  T
C1057      C1058   1.400       .  A
C1057      C1062   1.409       .  A
C1058      C1059   1.395       .  A
C1058      H2683   1.071       .  S
C1059      C1060   1.407       .  A
C1059      C1066   1.442       .  S
C1060      C1061   1.403       .  A
C1061      C1062   1.397       .  A
C1061      H1064   1.084       .  S
C1062      C1065   1.445       .  S
H1063      C2678   1.084   1_455  S
C1065      N1067   1.157       .  T
C1066      N2688   1.156   1_554  T
N1068      C2686   1.155   1_456  T
C1069      C1070   1.400       .  A
C1069      C1074   1.416       .  A
C1070      C1071   1.391       .  A
C1070      H1075   1.085       .  S
C1071      C1072   1.412       .  A
C1071      C1078   1.443       .  S
C1072      C1073   1.403       .  A
C1073      C1074   1.404       .  A
C1073      H1076   1.085       .  S
C1074      C1077   1.441       .  S
C1078      N1080   1.156       .  T
N1081      C1355   1.363       .  A
N1081      C1082   1.360       .  A
N1081      C1409   1.456       .  S
C1082      C1083   1.378       .  A
C1082      C1342   1.464       .  S
C1083      C1354   1.358       .  A
C1083      H1086   1.083       .  S
C1084      C1085   1.380       .  A
C1084      H1087   1.083       .  S
C1085      C1330   1.469       .  S
N1088      C1362   1.364       .  A
N1088      C1089   1.364       .  A
N1088      C1132   1.447       .  S
C1089      C1090   1.383       .  A
C1089      C1318   1.481       .  S
C1090      C1361   1.362       .  A
C1090      H1093   1.083       .  S
C1091      C1092   1.382       .  A
C1091      H1094   1.083       .  S
C1092      C1306   1.474       .  S
N1095      C1096   1.365       .  A
N1095      C1128   1.453       .  S
C1096      C1097   1.380       .  A
C1096      C1279   1.474       .  S
C1097      H1100   1.083       .  S
C1098      C1367   1.351       .  A
C1098      C1099   1.376       .  A
C1098      H1101   1.078       .  S
C1099      N1365   1.374       .  A
C1099      C1294   1.485       .  S
N1102      C1376   1.356       .  A
N1102      C1103   1.362       .  A
N1102      C1166   1.447       .  S
C1103      C1104   1.384       .  A
C1103      C1267   1.467       .  S
C1104      C1375   1.360       .  A
C1104      H1107   1.083       .  S
C1105      C1106   1.376       .  A
C1105      H1108   1.083       .  S
C1106      C1255   1.471       .  S
N1109      C1383   1.365       .  A
N1109      C1110   1.362       .  A
N1109      C1434   1.446       .  S
C1110      C1111   1.376       .  A
C1110      C1243   1.483       .  S
C1111      C1382   1.364       .  A
C1111      H1114   1.083       .  S
C1112      C1113   1.388       .  A
C1112      H1115   1.082       .  S
C1113      C1231   1.481       .  S
N1116      C1120   1.359       .  A
N1116      C1387   1.357       .  A
N1116      C1140   1.438       .  S
C1117      C1118   1.374       .  A
C1117      C1210   1.471       .  S
C1118      H1121   1.082       .  S
C1119      C1388   1.368       .  A
C1119      C1120   1.389       .  A
C1119      H1122   1.083       .  S
C1120      C1219   1.474       .  S
O1123     Mg1125   2.169       .  S
O1123     Mg1401   2.180       .  S
O1123      C1158   1.236       .  S
C1124      O1161   1.269       .  A
Mg1125     O3044   2.164       .  S
Mg1125     O1439   2.309       .  S
Mg1125     O2785   2.293       .  S
Mg1125     O2756   2.319       .  S
O1126     Mg3058   2.168       .  S
O1126     Mg1151   2.152       .  S
O1126      C2767   1.234       .  S
O1127      C1158   1.270       .  A
C1128      O1130   1.278       .  A
C1128      O1142   1.278       .  A
O1129      C1157   1.271       .  A
O1129     Mg1131   2.306       .  S
O1130     Mg1162   2.315       .  S
Mg1131     O1137   2.161       .  S
Mg1131     O1145   2.331       .  S
C1132      O1170   1.276       .  A
C1132      O1138   1.278       .  A
O1133      C1140   1.279       .  A
O1133     Mg1401   2.350       .  S
H1134      C2767   1.081       .  S
C1135      H1160   1.081       .  S
C1135      O1149   1.234       .  S
C1135      O1150   1.270       .  A
O1136     Mg2745   2.323   1_455  S
O1138     Mg1438   2.326   1_455  S
C1139      O1152   1.281       .  A
C1139      O1144   1.278       .  A
C1140      O1167   1.272       .  A
Mg1141     O1148   2.201       .  S
Mg1141     O1419   2.182       .  S
Mg1141     O1412   2.369       .  S
Mg1141     O1143   2.294       .  S
Mg1141     O1170   2.301       .  S
O1143      C1147   1.268       .  A
O1145      C1164   1.277       .  A
O1146      C1166   1.282       .  A
C1147      H2754   1.081   1_455  S
C1147      O2746   1.234   1_455  S
O1148     Mg1432   2.172       .  S
O1148      C1159   1.238       .  S
O1149     Mg1168   2.192   1_455  S
O1150     Mg1162   2.309       .  S
Mg1151     O1414   2.322       .  S
O1152     Mg2788   2.356       .  S
H1153      C1158   1.081       .  S
O1154     Mg2475   2.154       .  S
O1154      C2777   1.235       .  S
H1155      C2777   1.081       .  S
H1156      C1159   1.081       .  S
C1157      H2775   1.081       .  S
C1157      O2774   1.236       .  S
O1161     Mg2788   2.301       .  S
C1164      O1169   1.276       .  A
O1165      C1166   1.273       .  A
O1165     Mg2745   2.282   1_455  S
Mg1168     O2476   2.166       .  S
Mg1168     O2772   2.340       .  S
Mg1168     O2781   2.295       .  S
C1171      C2792   1.523   1_455  S
C1171      C2797   1.531   1_455  S
C1171      C1175   1.545       .  S
C1171      C1315   1.534       .  S
C1172      C2791   1.514       .  S
C1172      H1179   1.087       .  S
C1172      C1173   1.348       .  D
C1173      C1174   1.557       .  S
C1173      C1327   1.473       .  S
C1174      C1178   1.536       .  S
C1174      C2796   1.541       .  S
C1174      H1180   1.110       .  S
C1175      H1181   1.082       .  S
C1175      C1176   1.370       .  D
C1176      C2794   1.543   1_455  S
C1176      C1258   1.486       .  S
C1177      C2791   1.526       .  S
C1177      H1182   1.088       .  S
C1177      C1178   1.356       .  D
C1178      C1246   1.485       .  S
C1183      C1187   1.564       .  S
C1183      C1207   1.530       .  S
C1184      H1191   1.086       .  S
C1184      C1185   1.358       .  D
C1185      C1186   1.550       .  S
C1185      C1339   1.473       .  S
C1186      C1190   1.522       .  S
C1186      H1192   1.105       .  S
C1187      H1193   1.079       .  S
C1187      C1188   1.383       .  D
C1188      C1270   1.504       .  S
C1189      H1194   1.082       .  S
C1189      C1190   1.354       .  D
C1190      C1282   1.486       .  S
C1195      C1196   1.525       .  S
C1195      C1201   1.536       .  S
C1195      C1199   1.535       .  S
C1195      C1303   1.533       .  S
C1196      H1203   1.085       .  S
C1196      C1197   1.367       .  D
C1197      C1198   1.561       .  S
C1197      C1291   1.510       .  S
C1198      C1202   1.547       .  S
C1198      C1200   1.542       .  S
C1198      H1204   1.102       .  S
C1199      H1205   1.086       .  S
C1199      C1200   1.363       .  D
C1200      C1222   1.472       .  S
C1201      H1206   1.078       .  S
C1201      C1202   1.366       .  D
C1202      C1234   1.509       .  S
C1207      C1208   1.409       .  A
C1207      C1212   1.425       .  A
C1208      C1209   1.400       .  A
C1208      H1213   1.079       .  S
C1209      C1210   1.408       .  A
C1209      C1216   1.445       .  S
C1210      C1211   1.393       .  A
C1211      C1212   1.394       .  A
C1211      H1214   1.083       .  S
C1215      N1217   1.157       .  T
C1216      N1218   1.158       .  T
C1219      C1220   1.405       .  A
C1219      C1224   1.407       .  A
C1220      C1221   1.391       .  A
C1220      H1225   1.085       .  S
C1221      C1222   1.402       .  A
C1221      C1228   1.441       .  S
C1222      C1223   1.405       .  A
C1223      C1224   1.405       .  A
C1223      H1226   1.084       .  S
C1224      C1227   1.442       .  S
C1227      N1229   1.157       .  T
C1228      N1230   1.155       .  T
C1231      C1232   1.402       .  A
C1231      C1236   1.410       .  A
C1232      C1233   1.411       .  A
C1232      H1237   1.085       .  S
C1233      C1234   1.423       .  A
C1233      C1240   1.440       .  S
C1234      C1235   1.409       .  A
C1235      C1236   1.390       .  A
C1235      H1238   1.084       .  S
C1236      C1239   1.445       .  S
C1240      N1242   1.158       .  T
N1241      C1509   1.156       .  T
C1243      C1244   1.396       .  A
C1243      C1248   1.417       .  A
C1244      C1245   1.396       .  A
C1244      H1249   1.083       .  S
C1245      C1246   1.417       .  A
C1245      C2872   1.438       .  S
C1246      C1247   1.396       .  A
C1247      C1248   1.404       .  A
C1247      H1250   1.084       .  S
C1248      C1251   1.439       .  S
C1251      N1253   1.156       .  T
C1252      C2865   1.437       .  S
C1252      N1254   1.156       .  T
C1255      C1256   1.400       .  A
C1255      C1260   1.410       .  A
C1256      C1257   1.398       .  A
C1256      H1261   1.085       .  S
C1257      C1258   1.412       .  A
C1257      C1264   1.440       .  S
C1258      C1259   1.401       .  A
C1259      C1260   1.402       .  A
C1259      H2882   1.079   1_455  S
C1260      C1263   1.445       .  S
H1262      C2879   1.075       .  S
C1263      N2885   1.157       .  T
C1264      N1266   1.156       .  T
N1265      C2883   1.157       .  T
C1267      C1268   1.405       .  A
C1267      C1272   1.398       .  A
C1268      C1269   1.401       .  A
C1268      H1273   1.084       .  S
C1269      C1270   1.415       .  A
C1269      C1276   1.444       .  S
C1270      C1271   1.414       .  A
C1271      C1272   1.393       .  A
C1272      C1275   1.439       .  S
C1276      N1278   1.158       .  T
C1279      C1280   1.400       .  A
C1279      C1284   1.416       .  A
C1280      C1281   1.399       .  A
C1280      H1285   1.083       .  S
C1281      C1282   1.417       .  A
C1281      C1288   1.443       .  S
C1282      C1283   1.397       .  A
C1283      C1284   1.398       .  A
C1283      H1286   1.084       .  S
C1284      C1287   1.442       .  S
C1287      N1289   1.156       .  T
C1291      C1292   1.418       .  A
C1291      C1296   1.417       .  A
C1292      C1293   1.408       .  A
C1292      H1297   1.084       .  S
C1293      C1294   1.405       .  A
C1293      C1300   1.443       .  S
C1294      C1295   1.407       .  A
C1295      C1296   1.400       .  A
C1295      H1298   1.086       .  S
C1296      C1299   1.441       .  S
C1299      N1301   1.158       .  T
C1300      N1302   1.157       .  T
C1303      C1304   1.410       .  A
C1303      C1308   1.419       .  A
C1304      C1305   1.389       .  A
C1304      H1309   1.077       .  S
C1305      C1306   1.407       .  A
C1305      C1312   1.441       .  S
C1306      C1307   1.403       .  A
C1307      C1308   1.400       .  A
C1307      H1310   1.085       .  S
C1308      C1311   1.444       .  S
C1311      N1313   1.157       .  T
N1314      C1582   1.155       .  T
C1315      C1316   1.406       .  A
C1315      C1320   1.425       .  A
C1316      C1317   1.395       .  A
C1316      H1321   1.078       .  S
C1317      C1318   1.416       .  A
C1317      C1324   1.447       .  S
C1318      C1319   1.396       .  A
C1319      C1320   1.400       .  A
C1319      H1322   1.081       .  S
C1320      C2943   1.443   1_455  S
C1323      C2940   1.447       .  S
C1323      N1325   1.157       .  T
C1324      N1326   1.157       .  T
C1327      C1328   1.408       .  A
C1327      C1332   1.404       .  A
C1328      C1329   1.399       .  A
C1328      H2953   1.083       .  S
C1329      C1330   1.407       .  A
C1329      C1336   1.444       .  S
C1330      C1331   1.407       .  A
C1331      C1332   1.396       .  A
C1331      H1334   1.085       .  S
C1332      C1335   1.445       .  S
H1333      C2948   1.083       .  S
C1335      N1337   1.157       .  T
C1336      N2958   1.157       .  T
N1338      C2956   1.154       .  T
C1339      C1340   1.397       .  A
C1339      C1344   1.408       .  A
C1340      C1341   1.388       .  A
C1340      H1345   1.078       .  S
C1341      C1342   1.405       .  A
C1341      C1348   1.442       .  S
C1342      C1343   1.402       .  A
C1343      C1344   1.401       .  A
C1343      H1346   1.085       .  S
C1344      C1347   1.440       .  S
C1348      N1350   1.156       .  T
N1351      C1352   1.363   1_554  A
C1352      C1353   1.383   1_556  A
C1352      C1612   1.482       .  S
C1353      H1356   1.083       .  S
C1354      C1355   1.383       .  A
C1354      H1357   1.083       .  S
C1355      C1600   1.466       .  S
N1358      C1359   1.362       .  A
N1358      C1402   1.446       .  S
C1359      C1360   1.385       .  A
C1359      C1588   1.474       .  S
C1360      H1363   1.083       .  S
C1361      C1362   1.380       .  A
C1361      H1364   1.083       .  S
C1362      C1576   1.483       .  S
N1365      C1366   1.372       .  A
N1365      C1398   1.457       .  S
C1366      C1367   1.383       .  A
C1366      C1549   1.485       .  S
C1367      H1370   1.083       .  S
C1368      C1369   1.381       .  A
C1368      H1371   1.075       .  S
C1369      C1564   1.505   1_554  S
N1372      C1373   1.359       .  A
N1372      C1436   1.447       .  S
C1373      C1374   1.382       .  A
C1373      C1537   1.463       .  S
C1374      H1377   1.083       .  S
C1375      C1376   1.377       .  A
C1375      H1378   1.083       .  S
C1376      C1525   1.464       .  S
N1379      C1380   1.361   1_554  A
C1380      C1381   1.376   1_556  A
C1380      C1513   1.488       .  S
C1381      H1384   1.082   1_554  S
C1382      C1383   1.387       .  A
C1382      H1385   1.083       .  S
C1383      C1501   1.484       .  S
N1386      C1390   1.356       .  A
N1386      C1410   1.436       .  S
C1387      C1388   1.376       .  A
C1387      C1480   1.484       .  S
C1388      H1391   1.082       .  S
C1389      C1390   1.390       .  A
C1389      H1392   1.083       .  S
C1390      C1489   1.469       .  S
O1393     Mg1395   2.165       .  S
O1393      C1428   1.237       .  S
C1394      O1431   1.271       .  A
Mg1395     O2504   2.153   1_556  S
Mg1395     O3055   2.291       .  S
Mg1395     O3026   2.322       .  S
O1396     Mg2518   2.162   1_556  S
O1396     Mg1421   2.131       .  S
O1396      C3037   1.234       .  S
O1397      C1428   1.271       .  A
C1398      O1400   1.277       .  A
C1398      O1412   1.282       .  A
O1399      C1427   1.272       .  A
O1399     Mg1401   2.316       .  S
O1400     Mg1432   2.316       .  S
Mg1401     O1407   2.179       .  S
Mg1401     O1415   2.330       .  S
C1402      O1440   1.276       .  A
C1402      O1408   1.274       .  A
O1403      C1410   1.279       .  A
H1404      C3037   1.081       .  S
C1405      H1430   1.081       .  S
C1405      O1419   1.235       .  S
C1405      O1420   1.271       .  A
O1406     Mg3015   2.314       .  S
C1409      O1422   1.279       .  A
C1409      O1414   1.280       .  A
C1410      O1437   1.271       .  A
Mg1411     O1418   2.195       .  S
Mg1411     O1413   2.288       .  S
Mg1411     O1440   2.303       .  S
O1413      C1417   1.267       .  A
O1415      C1434   1.277       .  A
O1416      C1436   1.279       .  A
C1417      H3024   1.081   1_455  S
C1417      O3016   1.233   1_455  S
O1418      C1429   1.239       .  S
O1419     Mg1438   2.204   1_455  S
O1420     Mg1432   2.310       .  S
O1422     Mg3058   2.346       .  S
H1423      C1428   1.081       .  S
O1424     Mg2745   2.154   1_455  S
O1424      C3047   1.237   1_455  S
H1425      C3047   1.081   1_455  S
H1426      C1429   1.081       .  S
C1427      H3045   1.081       .  S
C1427      O3044   1.236       .  S
O1431     Mg3058   2.307       .  S
C1434      O1439   1.277       .  A
O1435      C1436   1.273       .  A
O1435     Mg3015   2.295       .  S
Mg1438     O2746   2.173       .  S
Mg1438     O3042   2.363       .  S
Mg1438     O3051   2.294       .  S
C1441      C3062   1.519   1_455  S
C1441      C3067   1.532   1_455  S
C1441      C1445   1.544       .  S
C1441      C1585   1.527       .  S
C1442      C3061   1.518       .  S
C1442      H1449   1.087       .  S
C1442      C1443   1.353       .  D
C1443      C1444   1.550       .  S
C1443      C1597   1.468       .  S
C1444      C1448   1.538       .  S
C1444      C3066   1.540       .  S
C1444      H1450   1.111       .  S
C1445      H1451   1.083       .  S
C1445      C1446   1.371       .  D
C1446      C3064   1.542   1_455  S
C1446      C1528   1.483       .  S
C1447      C3061   1.528       .  S
C1447      H1452   1.088       .  S
C1447      C1448   1.361       .  D
C1448      C1516   1.481       .  S
C1453      C1457   1.562       .  S
C1453      C1477   1.537       .  S
C1454      H1461   1.085       .  S
C1454      C1455   1.362       .  D
C1455      C1456   1.547       .  S
C1455      C1609   1.487       .  S
C1456      C1460   1.517       .  S
C1456      H1462   1.102       .  S
C1457      H1463   1.075       .  S
C1457      C1458   1.385       .  D
C1458      C1540   1.514       .  S
C1459      H1464   1.083       .  S
C1459      C1460   1.349       .  D
C1460      C1552   1.483       .  S
C1465      C1466   1.535       .  S
C1465      C1471   1.534       .  S
C1465      C1469   1.537       .  S
C1465      C1573   1.543       .  S
C1466      H1473   1.085       .  S
C1466      C1467   1.374       .  D
C1467      C1468   1.562       .  S
C1467      C1561   1.520       .  S
C1468      C1472   1.542       .  S
C1468      C1470   1.540       .  S
C1468      H1474   1.099       .  S
C1469      H1475   1.086       .  S
C1469      C1470   1.364       .  D
C1470      C1492   1.471       .  S
C1471      H1476   1.079       .  S
C1471      C1472   1.366       .  D
C1472      C1504   1.506       .  S
C1477      C1478   1.413       .  A
C1477      C1482   1.426       .  A
C1478      C1479   1.401       .  A
C1478      H1483   1.079       .  S
C1479      C1480   1.409       .  A
C1479      C1486   1.446       .  S
C1480      C1481   1.397       .  A
C1481      C1482   1.401       .  A
C1481      H1484   1.082       .  S
C1485      N1487   1.157       .  T
C1486      N1488   1.158       .  T
C1489      C1490   1.403       .  A
C1489      C1494   1.406       .  A
C1490      C1491   1.388       .  A
C1490      H1495   1.086       .  S
C1491      C1492   1.403       .  A
C1491      C1498   1.440       .  S
C1492      C1493   1.406       .  A
C1493      C1494   1.406       .  A
C1493      H1496   1.084       .  S
C1494      C1497   1.443       .  S
C1497      N1499   1.157       .  T
C1498      N1500   1.155       .  T
C1501      C1502   1.401       .  A
C1501      C1506   1.414       .  A
C1502      C1503   1.411       .  A
C1502      H1507   1.085       .  S
C1503      C1504   1.423       .  A
C1503      C1510   1.440       .  S
C1504      C1505   1.405       .  A
C1505      C1506   1.389       .  A
C1505      H1508   1.085       .  S
C1506      C1509   1.444       .  S
C1510      N1512   1.157       .  T
C1513      C1514   1.401       .  A
C1513      C1518   1.415       .  A
C1514      C1515   1.404       .  A
C1514      H1519   1.082       .  S
C1515      C1516   1.412       .  A
C1515      C3142   1.439       .  S
C1516      C1517   1.396       .  A
C1517      C1518   1.399       .  A
C1517      H1520   1.084       .  S
C1518      C1521   1.436       .  S
C1521      N1523   1.154       .  T
C1522      C3135   1.437       .  S
C1522      N1524   1.156   1_655  T
C1525      C1526   1.398       .  A
C1525      C1530   1.408       .  A
C1526      C1527   1.396       .  A
C1526      H1531   1.085       .  S
C1527      C1528   1.414       .  A
C1527      C1534   1.441       .  S
C1528      C1529   1.400       .  A
C1529      C1530   1.398       .  A
C1529      H3152   1.078   1_455  S
C1530      C1533   1.446       .  S
H1532      C3149   1.081       .  S
C1533      N3155   1.157       .  T
C1534      N1536   1.156       .  T
N1535      C3153   1.157       .  T
C1537      C1538   1.403       .  A
C1537      C1542   1.395       .  A
C1538      C1539   1.403       .  A
C1538      H1543   1.086       .  S
C1539      C1540   1.422       .  A
C1539      C1546   1.442       .  S
C1540      C1541   1.417       .  A
C1541      C1542   1.388       .  A
C1542      C1545   1.442       .  S
C1546      N1548   1.158       .  T
C1549      C1550   1.400       .  A
C1549      C1554   1.419       .  A
C1550      C1551   1.400       .  A
C1550      H1555   1.075       .  S
C1551      C1552   1.415       .  A
C1551      C1558   1.445       .  S
C1552      C1553   1.394       .  A
C1553      C1554   1.398       .  A
C1553      H1556   1.085       .  S
C1554      C1557   1.439       .  S
C1557      N1559   1.154       .  T
C1561      C1562   1.419       .  A
C1561      C1566   1.419       .  A
C1562      C1563   1.415       .  A
C1562      H1567   1.083       .  S
C1563      C1564   1.411       .  A
C1563      C1570   1.441       .  S
C1564      C1565   1.410       .  A
C1565      C1566   1.400       .  A
C1565      H1568   1.086       .  S
C1566      C1569   1.442       .  S
C1569      N1571   1.158       .  T
C1570      N1572   1.157       .  T
C1573      C1574   1.414       .  A
C1573      C1578   1.418       .  A
C1574      C1575   1.397       .  A
C1574      H1579   1.079       .  S
C1575      C1576   1.406       .  A
C1575      C1582   1.438       .  S
C1576      C1577   1.403       .  A
C1577      C1578   1.401       .  A
C1577      H1580   1.085       .  S
C1578      C1581   1.441       .  S
C1581      N1583   1.156       .  T
C1585      C1586   1.405       .  A
C1585      C1590   1.426       .  A
C1586      C1587   1.394       .  A
C1586      H1591   1.079       .  S
C1587      C1588   1.415       .  A
C1587      C1594   1.447       .  S
C1588      C1589   1.391       .  A
C1589      C1590   1.393       .  A
C1589      H1592   1.079       .  S
C1590      C3213   1.442   1_455  S
C1593      C3210   1.444       .  S
C1593      N1595   1.157       .  T
C1594      N1596   1.157       .  T
C1597      C1598   1.403       .  A
C1597      C1602   1.407       .  A
C1598      C1599   1.401       .  A
C1598      H3223   1.084       .  S
C1599      C1600   1.409       .  A
C1599      C1606   1.443       .  S
C1600      C1601   1.404       .  A
C1601      C1602   1.394       .  A
C1601      H1604   1.086       .  S
C1602      C1605   1.444       .  S
H1603      C3218   1.082       .  S
C1605      N1607   1.157       .  T
C1606      N3228   1.157       .  T
N1608      C3226   1.156       .  T
C1609      C1610   1.400       .  A
C1609      C1614   1.409       .  A
C1610      C1611   1.393       .  A
C1610      H1615   1.078       .  S
C1611      C1612   1.408       .  A
C1611      C1618   1.445       .  S
C1612      C1613   1.407       .  A
C1613      C1614   1.407       .  A
C1613      H1616   1.083       .  S
C1614      C1617   1.442       .  S
C1618      N1620   1.157   1_556  T
N1621      C1895   1.362       .  A
N1621      C1622   1.362       .  A
N1621      C1949   1.452       .  S
C1622      C1623   1.381       .  A
C1622      C1882   1.483       .  S
C1623      C1894   1.363       .  A
C1623      H1626   1.083       .  S
C1624      C2163   1.363       .  A
C1624      C1625   1.380   1_556  A
C1624      H1627   1.080       .  S
C1625      N2161   1.367   1_554  A
C1625      C1870   1.477       .  S
N1628      C1902   1.359       .  A
N1628      C1629   1.360       .  A
N1628      C1672   1.444       .  S
C1629      C1630   1.386       .  A
C1629      C1858   1.480       .  S
C1630      C1901   1.364       .  A
C1630      H1633   1.083       .  S
C1631      C2170   1.363       .  A
C1631      C1632   1.379       .  A
C1631      H1634   1.083       .  S
C1632      N2168   1.358       .  A
C1632      C1846   1.474       .  S
N1635      C2179   1.377       .  A
N1635      C1636   1.372       .  A
N1635      C1668   1.459       .  S
C1636      C1637   1.380       .  A
C1636      C1819   1.479       .  S
C1637      C2178   1.346       .  A
C1637      H1640   1.083       .  S
C1638      C1907   1.349       .  A
C1638      C1639   1.379       .  A
C1638      H1641   1.077       .  S
C1639      N1905   1.376       .  A
C1639      C1834   1.495       .  S
N1642      C1916   1.357       .  A
N1642      C1643   1.367       .  A
N1642      C1706   1.451       .  S
C1643      C1644   1.386       .  A
C1643      C1807   1.478       .  S
C1644      C1915   1.356       .  A
C1644      H1647   1.080       .  S
C1645      C2184   1.360   1_554  A
C1645      C1646   1.379       .  A
C1645      H1648   1.083       .  S
C1646      N2182   1.358   1_554  A
C1646      C1795   1.469       .  S
N1649      C1923   1.367       .  A
N1649      C1650   1.361       .  A
N1649      C1974   1.445       .  S
C1650      C1651   1.375       .  A
C1650      C1783   1.488       .  S
C1651      C1922   1.365       .  A
C1651      H1654   1.083       .  S
C1652      C2191   1.360       .  A
C1652      C1653   1.385       .  A
C1652      H1655   1.082       .  S
C1653      N2189   1.371       .  A
C1653      C1771   1.495       .  S
N1656      C1660   1.357       .  A
N1656      C1927   1.353       .  A
N1656      C1680   1.431       .  S
C1657      N2196   1.351       .  A
C1657      C1658   1.374       .  A
C1657      C1750   1.468   1_556  S
C1658      C2199   1.368       .  A
C1658      H1661   1.083       .  S
C1659      C1928   1.366       .  A
C1659      C1660   1.388       .  A
C1659      H1662   1.080       .  S
C1660      C1759   1.468       .  S
O1663     Mg1665   2.144   1_655  S
O1663     Mg1941   2.171       .  S
O1663      C1698   1.235       .  S
C1664      H2513   1.081   1_545  S
C1664      O2487   1.235   1_545  S
C1664      O1701   1.271       .  A
Mg1665     O1979   2.323   1_455  S
O1666     Mg1691   2.143       .  S
O1667      C1698   1.268       .  A
O1667     Mg2501   2.286       .  S
C1668      O1670   1.278       .  A
C1668      O1682   1.281       .  A
O1669      C1697   1.275   1_655  A
O1669     Mg1671   2.326       .  S
O1670     Mg1702   2.327       .  S
Mg1671     O2203   2.170   1_554  S
Mg1671     O1677   2.172       .  S
Mg1671     O1685   2.336       .  S
Mg1671     O2213   2.368   1_554  S
C1672      O1710   1.273       .  A
C1672      O1678   1.276       .  A
O1673      C1680   1.277       .  A
O1673     Mg1941   2.328       .  S
C1675      H1700   1.081       .  S
C1675      O1689   1.234       .  S
C1675      O1690   1.270       .  A
O1676      C2509   1.274       .  A
O1677     Mg3041   2.166   1_554  S
O1677      C2474   1.236       .  S
O1678     Mg1978   2.308       .  S
C1679      N2161   1.454       .  S
C1679      O1692   1.277   1_556  A
C1679      O1684   1.280       .  A
C1680      O1707   1.270       .  A
Mg1681     O1688   2.185       .  S
Mg1681     O1959   2.185       .  S
Mg1681     O1952   2.354       .  S
Mg1681     O1683   2.302       .  S
Mg1681     O1710   2.283       .  S
O1682     Mg2221   2.362   1_554  S
O1683      C1687   1.269       .  A
O1684     Mg2231   2.340       .  S
O1685      C1704   1.278       .  A
O1686      C1706   1.278       .  A
O1686     Mg2782   2.354       .  S
O1688     Mg1972   2.174       .  S
O1688      C1699   1.238       .  S
O1689     Mg2221   2.188   1_554  S
O1689     Mg1708   2.202       .  S
O1690     Mg1702   2.305       .  S
Mg1691     O2757   2.176   1_545  S
Mg1691     O2477   2.293   1_545  S
Mg1691     O1954   2.282       .  S
Mg1691     O2517   2.249   1_545  S
H1693      C1698   1.081       .  S
O1694     Mg2512   2.187       .  S
H1696      C1699   1.081       .  S
C1699      O2486   1.274   1_545  A
Mg1702     O2228   2.175   1_554  S
Mg1702     O2504   2.194   1_545  S
Mg1702     O3036   2.345   1_544  S
H1703      C2474   1.081       .  S
C1704      N2189   1.453       .  S
C1704      O1709   1.283       .  A
O1705      C1706   1.276       .  A
O1707     Mg2501   2.237       .  S
Mg1708     O2218   2.325   1_554  S
O1709     Mg2205   2.349   1_654  S
C1711      C1715   1.543       .  S
C1711      C1855   1.526       .  S
C1712      H1719   1.087       .  S
C1712      C1713   1.357       .  D
C1713      C1714   1.553       .  S
C1713      C1867   1.476       .  S
C1714      C1718   1.539       .  S
C1714      H1720   1.110       .  S
C1715      H1721   1.083       .  S
C1715      C1716   1.372       .  D
C1716      C1798   1.491       .  S
C1717      H1722   1.088       .  S
C1717      C1718   1.360       .  D
C1718      C1786   1.481       .  S
C1723      C2534   1.533       .  S
C1723      C2539   1.528       .  S
C1723      C1727   1.565       .  S
C1723      C1747   1.532       .  S
C1724      C2533   1.530       .  S
C1724      H1731   1.084       .  S
C1724      C1725   1.363   1_565  D
C1725      C1726   1.548       .  S
C1725      C1879   1.486       .  S
C1726      C1730   1.525       .  S
C1726      C2538   1.524   1_545  S
C1726      H1732   1.105       .  S
C1727      H1733   1.074       .  S
C1727      C1728   1.378       .  D
C1728      C2536   1.532       .  S
C1728      C1810   1.503       .  S
C1729      C2533   1.531   1_545  S
C1729      H1734   1.087       .  S
C1729      C1730   1.352       .  D
C1730      C1822   1.491       .  S
C1735      C1736   1.530       .  S
C1735      C1741   1.540       .  S
C1735      C1739   1.536       .  S
C1735      C1843   1.537       .  S
C1736      H1743   1.085       .  S
C1736      C1737   1.372       .  D
C1737      C1738   1.562       .  S
C1737      C1831   1.517       .  S
C1738      C1742   1.535       .  S
C1738      C1740   1.537       .  S
C1738      H1744   1.102       .  S
C1739      H1745   1.087       .  S
C1739      C1740   1.361       .  D
C1740      C1762   1.465       .  S
C1741      H1746   1.079       .  S
C1741      C1742   1.366       .  D
C1742      C1774   1.498       .  S
C1747      C1748   1.410       .  A
C1747      C1752   1.425       .  A
C1748      C1749   1.397       .  A
C1748      H1753   1.077       .  S
C1749      C1750   1.406       .  A
C1749      C1756   1.446       .  S
C1750      C1751   1.394       .  A
C1751      C1752   1.396       .  A
C1751      H1754   1.084       .  S
C1752      C2565   1.444       .  S
C1755      C2562   1.445   1_545  S
C1755      N1757   1.157       .  T
C1756      N1758   1.157       .  T
C1759      C1760   1.403       .  A
C1759      C1764   1.407       .  A
C1760      C1761   1.385       .  A
C1760      H1765   1.086       .  S
C1761      C1762   1.399       .  A
C1761      C1768   1.439       .  S
C1762      C1763   1.403       .  A
C1763      C1764   1.404       .  A
C1763      H1766   1.084       .  S
C1764      C1767   1.442       .  S
C1767      N1769   1.157       .  T
C1768      N1770   1.155       .  T
C1771      C1772   1.403       .  A
C1771      C1776   1.423       .  A
C1772      C1773   1.413       .  A
C1772      H1777   1.085       .  S
C1773      C1774   1.420       .  A
C1773      C1780   1.439       .  S
C1774      C1775   1.396       .  A
C1775      C1776   1.388       .  A
C1775      H1778   1.086       .  S
C1776      C1779   1.441       .  S
C1779      N2321   1.156       .  T
C1780      N1782   1.157       .  T
N1781      C2049   1.157       .  T
C1783      C1784   1.402       .  A
C1783      C1788   1.414       .  A
C1784      C1785   1.404       .  A
C1784      H1789   1.082       .  S
C1785      C1786   1.411       .  A
C1786      C1787   1.398       .  A
C1787      C1788   1.401       .  A
C1787      H1790   1.085       .  S
C1788      C1791   1.438       .  S
C1791      N1793   1.155       .  T
C1792      N1794   1.154       .  T
C1795      C1796   1.395       .  A
C1795      C1800   1.407       .  A
C1796      C1797   1.394       .  A
C1796      H1801   1.084       .  S
C1797      C1798   1.414       .  A
C1797      C1804   1.434       .  S
C1798      C1799   1.402       .  A
C1799      C1800   1.403       .  A
C1800      C1803   1.444       .  S
C1804      N1806   1.153       .  T
C1807      C1808   1.407       .  A
C1807      C1812   1.400       .  A
C1808      C1809   1.399       .  A
C1808      H1813   1.085       .  S
C1809      C1810   1.416       .  A
C1809      C1816   1.444       .  S
C1810      C1811   1.415       .  A
C1811      C1812   1.398       .  A
C1811      H2624   1.080       .  S
C1812      C1815   1.439       .  S
H1814      C2621   1.078   1_545  S
C1815      N2627   1.156       .  T
C1816      N1818   1.158       .  T
N1817      C2625   1.154       .  T
C1819      C1820   1.399       .  A
C1819      C1824   1.418       .  A
C1820      C1821   1.400       .  A
C1820      H1825   1.079       .  S
C1821      C1822   1.421       .  A
C1821      C1828   1.442   1_545  S
C1822      C1823   1.394       .  A
C1823      C1824   1.397       .  A
C1823      H1826   1.085       .  S
C1824      C1827   1.436       .  S
C1827      N1829   1.153       .  T
C1828      N2640   1.156       .  T
N1830      C2638   1.157       .  T
C1831      C1832   1.420       .  A
C1831      C1836   1.418       .  A
C1832      C1833   1.409       .  A
C1832      H1837   1.082       .  S
C1833      C1834   1.407       .  A
C1833      C1840   1.443       .  S
C1834      C1835   1.409       .  A
C1835      C1836   1.399       .  A
C1835      H1838   1.086       .  S
C1836      C1839   1.442       .  S
C1839      N1841   1.158       .  T
C1840      N1842   1.157       .  T
C1843      C1844   1.413       .  A
C1843      C1848   1.421       .  A
C1844      C1845   1.395       .  A
C1844      H1849   1.077       .  S
C1845      C1846   1.406       .  A
C1845      C1852   1.440       .  S
C1846      C1847   1.398       .  A
C1847      C1848   1.397       .  A
C1847      H1850   1.086       .  S
C1848      C1851   1.442       .  S
C1851      N1853   1.156       .  T
C1852      N2394   1.156   1_554  T
N1854      C2122   1.153       .  T
C1855      C1856   1.407       .  A
C1855      C1860   1.426       .  A
C1856      C1857   1.394       .  A
C1856      H1861   1.080       .  S
C1857      C1858   1.414       .  A
C1857      C1864   1.445       .  S
C1858      C1859   1.393       .  A
C1859      C1860   1.394       .  A
C1859      H1862   1.078       .  S
C1863      N1865   1.157       .  T
C1864      N1866   1.157       .  T
C1867      C1868   1.398       .  A
C1867      C1872   1.407       .  A
C1868      C1869   1.396       .  A
C1869      C1870   1.412       .  A
C1869      C1876   1.438   1_554  S
C1870      C1871   1.407       .  A
C1871      C1872   1.404       .  A
C1871      H1874   1.085       .  S
C1872      C1875   1.443       .  S
C1875      N1877   1.157       .  T
C1879      C1880   1.403       .  A
C1879      C1884   1.407       .  A
C1880      C1881   1.397       .  A
C1880      H1885   1.082   1_545  S
C1881      C1882   1.409       .  A
C1881      C1888   1.444   1_545  S
C1882      C1883   1.407       .  A
C1883      C1884   1.406       .  A
C1883      H1886   1.084       .  S
C1884      C1887   1.441       .  S
C1887      N2699   1.157       .  T
C1888      N1890   1.157       .  T
N1889      C2697   1.157       .  T
N1891      C2165   1.363       .  A
N1891      C1892   1.365       .  A
N1891      C2219   1.456       .  S
C1892      C1893   1.382       .  A
C1892      C2152   1.482       .  S
C1893      C2164   1.361       .  A
C1893      H1896   1.083       .  S
C1894      C1895   1.381       .  A
C1894      H1897   1.081       .  S
C1895      C2140   1.473       .  S
N1898      C2172   1.361       .  A
N1898      C1899   1.360       .  A
N1898      C1942   1.448       .  S
C1899      C1900   1.383       .  A
C1899      C2128   1.475       .  S
C1900      C2171   1.363       .  A
C1900      H1903   1.082       .  S
C1901      C1902   1.379       .  A
C1901      H1904   1.083       .  S
C1902      C2116   1.477       .  S
N1905      C1906   1.371       .  A
N1905      C1938   1.454       .  S
C1906      C1907   1.380       .  A
C1906      C2089   1.485       .  S
C1907      H1910   1.081       .  S
C1908      C2177   1.351       .  A
C1908      C1909   1.377       .  A
C1908      H1911   1.079       .  S
C1909      N2175   1.376       .  A
C1909      C2104   1.498       .  S
N1912      C2186   1.357       .  A
N1912      C1913   1.360       .  A
N1912      C1976   1.446       .  S
C1913      C1914   1.382       .  A
C1913      C2077   1.465       .  S
C1914      C2185   1.361       .  A
C1914      H1917   1.082       .  S
C1915      C1916   1.375       .  A
C1915      H1918   1.083       .  S
C1916      C2065   1.461       .  S
N1919      C2193   1.369       .  A
N1919      C1920   1.363       .  A
N1919      C2244   1.447       .  S
C1920      C1921   1.375       .  A
C1920      C2053   1.488       .  S
C1921      C2192   1.363       .  A
C1921      H1924   1.083       .  S
C1922      C1923   1.386       .  A
C1922      H1925   1.080       .  S
C1923      C2041   1.497       .  S
N1926      C1930   1.361       .  A
N1926      C2197   1.361       .  A
N1926      C1950   1.439       .  S
C1927      C1928   1.371       .  A
C1927      C2020   1.475       .  S
C1928      H1931   1.079       .  S
C1929      C2198   1.366       .  A
C1929      C1930   1.388       .  A
C1929      H1932   1.083       .  S
C1930      C2029   1.473       .  S
O1933     Mg1935   2.162   1_655  S
O1933     Mg2211   2.180       .  S
O1933      C1968   1.237       .  S
C1934      H2783   1.081       .  S
C1934      O2757   1.235       .  S
C1934      O1971   1.269   1_565  A
Mg1935     O2249   2.334   1_455  S
O1936     Mg1961   2.144       .  S
O1937      C1968   1.270       .  A
O1937     Mg2771   2.294       .  S
C1938      O1940   1.277       .  A
C1938      O1952   1.280       .  A
O1939      C1967   1.272       .  A
O1939     Mg1941   2.318       .  S
O1940     Mg1972   2.313       .  S
Mg1941     O1947   2.167       .  S
Mg1941     O1955   2.317       .  S
C1942      O1980   1.278       .  A
C1942      O1948   1.277       .  A
O1943      C1950   1.280       .  A
O1943     Mg2211   2.356       .  S
C1945      H1970   1.081       .  S
C1945      O1959   1.235       .  S
C1945      O1960   1.271       .  A
O1946      C2779   1.275       .  A
O1947     Mg2501   2.181       .  S
O1947      C2744   1.236       .  S
O1948     Mg2248   2.325       .  S
C1949      O1962   1.278       .  A
C1949      O1954   1.273       .  A
C1950      O1977   1.272       .  A
Mg1951     O1958   2.208       .  S
Mg1951     O2229   2.175       .  S
Mg1951     O2222   2.343       .  S
Mg1951     O1953   2.297       .  S
Mg1951     O1980   2.313       .  S
O1953      C1957   1.269       .  A
O1955      C1974   1.275       .  A
O1956      C1976   1.280       .  A
O1956     Mg3052   2.362       .  S
O1958     Mg2242   2.183       .  S
O1958      C1969   1.237       .  S
O1959     Mg1978   2.199       .  S
O1960     Mg1972   2.313       .  S
Mg1961     O3027   2.175   1_545  S
Mg1961     O2747   2.286   1_545  S
Mg1961     O2224   2.290       .  S
Mg1961     O2787   2.244   1_545  S
H1963      C1968   1.081       .  S
O1964     Mg2782   2.173       .  S
H1966      C1969   1.081       .  S
C1969      O2756   1.273   1_545  A
Mg1972     O2774   2.173   1_545  S
Mg1972     O2496   2.374   1_545  S
H1973      C2744   1.081       .  S
C1974      O1979   1.280       .  A
O1975      C1976   1.273       .  A
O1977     Mg2771   2.256       .  S
C1981      C1985   1.550       .  S
C1981      C2125   1.530       .  S
C1982      H1989   1.086       .  S
C1982      C1983   1.357       .  D
C1983      C1984   1.549       .  S
C1983      C2137   1.471       .  S
C1984      C1988   1.538       .  S
C1984      H1990   1.109       .  S
C1985      H1991   1.082       .  S
C1985      C1986   1.375       .  D
C1986      C2068   1.484       .  S
C1987      H1992   1.087       .  S
C1987      C1988   1.363       .  D
C1988      C2056   1.485       .  S
C1993      C2804   1.525       .  S
C1993      C2809   1.532       .  S
C1993      C1997   1.563       .  S
C1993      C2017   1.532       .  S
C1994      C2803   1.528       .  S
C1994      H2001   1.086       .  S
C1994      C1995   1.360   1_565  D
C1995      C1996   1.551       .  S
C1995      C2149   1.487       .  S
C1996      C2000   1.525       .  S
C1996      C2808   1.533   1_545  S
C1996      H2002   1.100       .  S
C1997      H2003   1.076       .  S
C1997      C1998   1.383       .  D
C1998      C2806   1.533       .  S
C1998      C2080   1.506       .  S
C1999      C2803   1.531       .  S
C1999      H2004   1.086       .  S
C1999      C2000   1.351   1_565  D
C2000      C2092   1.489       .  S
C2005      C2006   1.529       .  S
C2005      C2011   1.541       .  S
C2005      C2009   1.534       .  S
C2005      C2113   1.536       .  S
C2006      H2013   1.085       .  S
C2006      C2007   1.370       .  D
C2007      C2008   1.565       .  S
C2007      C2101   1.516       .  S
C2008      C2012   1.547       .  S
C2008      C2010   1.542       .  S
C2008      H2014   1.103       .  S
C2009      H2015   1.087       .  S
C2009      C2010   1.359       .  D
C2010      C2032   1.471       .  S
C2011      H2016   1.079       .  S
C2011      C2012   1.368       .  D
C2012      C2044   1.508       .  S
C2017      C2018   1.409       .  A
C2017      C2022   1.421       .  A
C2018      C2019   1.400       .  A
C2018      H2023   1.078       .  S
C2019      C2020   1.407       .  A
C2019      C2026   1.444       .  S
C2020      C2021   1.397       .  A
C2021      C2022   1.396       .  A
C2021      H2024   1.081       .  S
C2022      C2835   1.443       .  S
C2025      C2832   1.445   1_545  S
C2025      N2027   1.157       .  T
C2026      N2028   1.157       .  T
C2029      C2030   1.403       .  A
C2029      C2034   1.409       .  A
C2030      C2031   1.386       .  A
C2030      H2035   1.086       .  S
C2031      C2032   1.400       .  A
C2031      C2038   1.438       .  S
C2032      C2033   1.404       .  A
C2033      C2034   1.407       .  A
C2033      H2036   1.084       .  S
C2034      C2037   1.442       .  S
C2037      N2039   1.157       .  T
C2038      N2040   1.154       .  T
C2041      C2042   1.403       .  A
C2041      C2046   1.421       .  A
C2042      C2043   1.413       .  A
C2042      H2047   1.085       .  S
C2043      C2044   1.420       .  A
C2043      C2050   1.439       .  S
C2044      C2045   1.404       .  A
C2045      C2046   1.395       .  A
C2045      H2048   1.085       .  S
C2046      C2049   1.445       .  S
C2050      N2052   1.157       .  T
N2051      C2319   1.157       .  T
C2053      C2054   1.402       .  A
C2053      C2058   1.415       .  A
C2054      C2055   1.404       .  A
C2054      H2059   1.081       .  S
C2055      C2056   1.410       .  A
C2056      C2057   1.398       .  A
C2057      C2058   1.401       .  A
C2057      H2060   1.082       .  S
C2058      C2061   1.441       .  S
C2061      N2063   1.157       .  T
C2062      N2064   1.155       .  T
C2065      C2066   1.399       .  A
C2065      C2070   1.407       .  A
C2066      C2067   1.396       .  A
C2066      H2071   1.086       .  S
C2067      C2068   1.412       .  A
C2067      C2074   1.438       .  S
C2068      C2069   1.402       .  A
C2069      C2070   1.395       .  A
C2070      C2073   1.445       .  S
C2074      N2076   1.156       .  T
C2077      C2078   1.404       .  A
C2077      C2082   1.398       .  A
C2078      C2079   1.402       .  A
C2078      H2083   1.086       .  S
C2079      C2080   1.417       .  A
C2079      C2086   1.444       .  S
C2080      C2081   1.414       .  A
C2081      C2082   1.391       .  A
C2081      H2894   1.076       .  S
C2082      C2085   1.441       .  S
H2084      C2891   1.075   1_545  S
C2085      N2897   1.155       .  T
C2086      N2088   1.158       .  T
N2087      C2895   1.155   1_545  T
C2089      C2090   1.399       .  A
C2089      C2094   1.417       .  A
C2090      C2091   1.402       .  A
C2090      H2095   1.074       .  S
C2091      C2092   1.419       .  A
C2091      C2098   1.446   1_545  S
C2092      C2093   1.396       .  A
C2093      C2094   1.396       .  A
C2093      H2096   1.084       .  S
C2094      C2097   1.438       .  S
C2097      N2099   1.154       .  T
C2098      N2910   1.158       .  T
N2100      C2908   1.157       .  T
C2101      C2102   1.418       .  A
C2101      C2106   1.416       .  A
C2102      C2103   1.411       .  A
C2102      H2107   1.084       .  S
C2103      C2104   1.410       .  A
C2103      C2110   1.441       .  S
C2104      C2105   1.408       .  A
C2105      C2106   1.400       .  A
C2105      H2108   1.086       .  S
C2106      C2109   1.441       .  S
C2109      N2111   1.157       .  T
C2110      N2112   1.157       .  T
C2113      C2114   1.410       .  A
C2113      C2118   1.422       .  A
C2114      C2115   1.394       .  A
C2114      H2119   1.077       .  S
C2115      C2116   1.405       .  A
C2115      C2122   1.434       .  S
C2116      C2117   1.398       .  A
C2117      C2118   1.398       .  A
C2117      H2120   1.085       .  S
C2118      C2121   1.442       .  S
C2121      N2123   1.156       .  T
N2124      C2392   1.154       .  T
C2125      C2126   1.406       .  A
C2125      C2130   1.426       .  A
C2126      C2127   1.397       .  A
C2126      H2131   1.078       .  S
C2127      C2128   1.415       .  A
C2127      C2134   1.446       .  S
C2128      C2129   1.392       .  A
C2129      C2130   1.397       .  A
C2129      H2132   1.082       .  S
C2133      N2135   1.156       .  T
C2134      N2136   1.157       .  T
C2137      C2138   1.402       .  A
C2137      C2142   1.408       .  A
C2138      C2139   1.402       .  A
C2139      C2140   1.411       .  A
C2139      C2146   1.441       .  S
C2140      C2141   1.403       .  A
C2141      C2142   1.394       .  A
C2141      H2144   1.086       .  S
C2142      C2145   1.444       .  S
C2145      N2147   1.157       .  T
C2149      C2150   1.398       .  A
C2149      C2154   1.409       .  A
C2150      C2151   1.391       .  A
C2150      H2155   1.077   1_545  S
C2151      C2152   1.410       .  A
C2151      C2158   1.444       .  S
C2152      C2153   1.408       .  A
C2153      C2154   1.408       .  A
C2153      H2156   1.084       .  S
C2154      C2157   1.441       .  S
C2157      N2969   1.157       .  T
C2158      N2160   1.157   1_545  T
N2159      C2967   1.157       .  T
N2161      C2162   1.366       .  A
C2162      C2163   1.379       .  A
C2162      C2422   1.480       .  S
C2163      H2166   1.082       .  S
C2164      C2165   1.381       .  A
C2164      H2167   1.083       .  S
C2165      C2410   1.468       .  S
N2168      C2169   1.361   1_554  A
N2168      C2212   1.445   1_554  S
C2169      C2170   1.384   1_556  A
C2169      C2398   1.476       .  S
C2170      H2173   1.083       .  S
C2171      C2172   1.381       .  A
C2171      H2174   1.083       .  S
C2172      C2386   1.476       .  S
N2175      C2176   1.376       .  A
N2175      C2208   1.455       .  S
C2176      C2177   1.381       .  A
C2176      C2359   1.491       .  S
C2177      H2180   1.083       .  S
C2178      C2179   1.381       .  A
C2178      H2181   1.080       .  S
C2179      C2374   1.492   1_554  S
N2182      C2183   1.363       .  A
N2182      C2246   1.449       .  S
C2183      C2184   1.382       .  A
C2183      C2347   1.468       .  S
C2184      H2187   1.083       .  S
C2185      C2186   1.378       .  A
C2185      H2188   1.083       .  S
C2186      C2335   1.466       .  S
N2189      C2190   1.363   1_554  A
C2190      C2191   1.373   1_556  A
C2190      C2323   1.485       .  S
C2191      H2194   1.081   1_554  S
C2192      C2193   1.385       .  A
C2192      H2195   1.082       .  S
C2193      C2311   1.496       .  S
N2196      C2200   1.354       .  A
N2196      C2220   1.436       .  S
C2197      C2198   1.377       .  A
C2197      C2290   1.490       .  S
C2198      H2201   1.081       .  S
C2199      C2200   1.390       .  A
C2199      H2202   1.082       .  S
C2200      C2299   1.464       .  S
O2203     Mg2205   2.160   1_655  S
O2203      C2238   1.236       .  S
C2204      H3053   1.081       .  S
C2204      O3027   1.236       .  S
C2204      O2241   1.271   1_565  A
O2206     Mg2231   2.155       .  S
O2207      C2238   1.270       .  A
O2207     Mg3041   2.295       .  S
C2208      O2210   1.278       .  A
C2208      O2222   1.280       .  A
O2209      C2237   1.273       .  A
O2209     Mg2211   2.321       .  S
O2210     Mg2242   2.320       .  S
Mg2211     O2217   2.162       .  S
Mg2211     O2225   2.321       .  S
C2212      O2250   1.276       .  A
C2212      O2218   1.278       .  A
O2213      C2220   1.282       .  A
C2215      H2240   1.081       .  S
C2215      O2229   1.234       .  S
C2215      O2230   1.271       .  A
O2216      C3049   1.276       .  A
O2217     Mg2771   2.170       .  S
O2217      C3014   1.236       .  S
C2219      O2232   1.281       .  A
C2219      O2224   1.274       .  A
C2220      O2247   1.269       .  A
Mg2221     O2228   2.193       .  S
Mg2221     O2223   2.289       .  S
Mg2221     O2250   2.290       .  S
O2223      C2227   1.267       .  A
O2225      C2244   1.276       .  A
O2226      C2246   1.282       .  A
O2226     Mg2512   2.377   1_556  S
O2228      C2239   1.238       .  S
O2229     Mg2248   2.194       .  S
O2230     Mg2242   2.309       .  S
Mg2231     O2487   2.172   1_546  S
Mg2231     O3017   2.299   1_545  S
Mg2231     O3057   2.249   1_545  S
H2233      C2238   1.081       .  S
O2234     Mg3052   2.178       .  S
H2236      C2239   1.081       .  S
C2239      O3026   1.274   1_545  A
Mg2242     O3044   2.187   1_545  S
Mg2242     O2766   2.383   1_545  S
H2243      C3014   1.081       .  S
C2244      O2249   1.281       .  A
O2245      C2246   1.273       .  A
O2247     Mg3041   2.227       .  S
C2251      C2255   1.550       .  S
C2251      C2395   1.531       .  S
C2252      H2259   1.087       .  S
C2252      C2253   1.353       .  D
C2253      C2254   1.549       .  S
C2253      C2407   1.470       .  S
C2254      C2258   1.541       .  S
C2254      H2260   1.111       .  S
C2255      H2261   1.083       .  S
C2255      C2256   1.377       .  D
C2256      C2338   1.487       .  S
C2257      H2262   1.087       .  S
C2257      C2258   1.365       .  D
C2258      C2326   1.484       .  S
C2263      C3074   1.531       .  S
C2263      C3079   1.530       .  S
C2263      C2267   1.564       .  S
C2263      C2287   1.543       .  S
C2264      C3073   1.528       .  S
C2264      H2271   1.083       .  S
C2264      C2265   1.363   1_565  D
C2265      C2266   1.555       .  S
C2265      C2419   1.505       .  S
C2266      C2270   1.533       .  S
C2266      C3078   1.542   1_545  S
C2266      H2272   1.103       .  S
C2267      H2273   1.076       .  S
C2267      C2268   1.386       .  D
C2268      C3076   1.537       .  S
C2268      C2350   1.518       .  S
C2269      C3073   1.530       .  S
C2269      H2274   1.084   1_565  S
C2269      C2270   1.353   1_565  D
C2270      C2362   1.494       .  S
C2275      C2276   1.525       .  S
C2275      C2281   1.540       .  S
C2275      C2279   1.532       .  S
C2275      C2383   1.534       .  S
C2276      H2283   1.085       .  S
C2276      C2277   1.369       .  D
C2277      C2278   1.564       .  S
C2277      C2371   1.510       .  S
C2278      C2282   1.546       .  S
C2278      C2280   1.539       .  S
C2278      H2284   1.105       .  S
C2279      H2285   1.087       .  S
C2279      C2280   1.359       .  D
C2280      C2302   1.466       .  S
C2281      H2286   1.079       .  S
C2281      C2282   1.367       .  D
C2282      C2314   1.505       .  S
C2287      C2288   1.412       .  A
C2287      C2292   1.424       .  A
C2288      C2289   1.404       .  A
C2288      H2293   1.079       .  S
C2289      C2290   1.412       .  A
C2289      C2296   1.446       .  S
C2290      C2291   1.396       .  A
C2291      C2292   1.400       .  A
C2291      H2294   1.080       .  S
C2292      C3105   1.439       .  S
C2295      C3102   1.443   1_545  S
C2295      N2297   1.156       .  T
C2296      N2298   1.157       .  T
C2299      C2300   1.402       .  A
C2299      C2304   1.404       .  A
C2300      C2301   1.387       .  A
C2300      H2305   1.085       .  S
C2301      C2302   1.404       .  A
C2301      C2308   1.441       .  S
C2302      C2303   1.404       .  A
C2303      C2304   1.402       .  A
C2303      H2306   1.084       .  S
C2304      C2307   1.442       .  S
C2307      N2309   1.157       .  T
C2308      N2310   1.155       .  T
C2311      C2312   1.404       .  A
C2311      C2316   1.421       .  A
C2312      C2313   1.414       .  A
C2312      H2317   1.084       .  S
C2313      C2314   1.419       .  A
C2313      C2320   1.439       .  S
C2314      C2315   1.400       .  A
C2315      C2316   1.393       .  A
C2315      H2318   1.083       .  S
C2316      C2319   1.445       .  S
C2320      N2322   1.157       .  T
C2323      C2324   1.399       .  A
C2323      C2328   1.415       .  A
C2324      C2325   1.401       .  A
C2324      H2329   1.081       .  S
C2325      C2326   1.411       .  A
C2326      C2327   1.397       .  A
C2327      C2328   1.400       .  A
C2327      H2330   1.082       .  S
C2328      C2331   1.440       .  S
C2331      N2333   1.156       .  T
C2332      N2334   1.156       .  T
C2335      C2336   1.400       .  A
C2335      C2340   1.407       .  A
C2336      C2337   1.399       .  A
C2336      H2341   1.085       .  S
C2337      C2338   1.412       .  A
C2337      C2344   1.439       .  S
C2338      C2339   1.403       .  A
C2339      C2340   1.398       .  A
C2340      C2343   1.446       .  S
C2344      N2346   1.156       .  T
C2347      C2348   1.403       .  A
C2347      C2352   1.396       .  A
C2348      C2349   1.404       .  A
C2348      H2353   1.086       .  S
C2349      C2350   1.421       .  A
C2349      C2356   1.443       .  S
C2350      C2351   1.418       .  A
C2351      C2352   1.395       .  A
C2351      H3164   1.072       .  S
C2352      C2355   1.442       .  S
H2354      C3161   1.080   1_545  S
C2355      N3167   1.156       .  T
C2356      N2358   1.158       .  T
N2357      C3165   1.156   1_545  T
C2359      C2360   1.398       .  A
C2359      C2364   1.423       .  A
C2360      C2361   1.399       .  A
C2360      H2365   1.074       .  S
C2361      C2362   1.421       .  A
C2361      C2368   1.446   1_545  S
C2362      C2363   1.395       .  A
C2363      C2364   1.402       .  A
C2363      H2366   1.085       .  S
C2364      C2367   1.441       .  S
C2367      N2369   1.155       .  T
C2368      N3180   1.157       .  T
N2370      C3178   1.157       .  T
C2371      C2372   1.416       .  A
C2371      C2376   1.414       .  A
C2372      C2373   1.406       .  A
C2372      H2377   1.083       .  S
C2373      C2374   1.408       .  A
C2373      C2380   1.438       .  S
C2374      C2375   1.409       .  A
C2375      C2376   1.398       .  A
C2375      H2378   1.086       .  S
C2376      C2379   1.441       .  S
C2379      N2381   1.157       .  T
C2380      N2382   1.156       .  T
C2383      C2384   1.409       .  A
C2383      C2388   1.423       .  A
C2384      C2385   1.392       .  A
C2384      H2389   1.075       .  S
C2385      C2386   1.405       .  A
C2385      C2392   1.437       .  S
C2386      C2387   1.400       .  A
C2387      C2388   1.399       .  A
C2387      H2390   1.085       .  S
C2388      C2391   1.445       .  S
C2391      N2393   1.157       .  T
C2395      C2396   1.406       .  A
C2395      C2400   1.428       .  A
C2396      C2397   1.399       .  A
C2396      H2401   1.080       .  S
C2397      C2398   1.417       .  A
C2397      C2404   1.447       .  S
C2398      C2399   1.390       .  A
C2399      C2400   1.394       .  A
C2399      H2402   1.081       .  S
C2403      N2405   1.157       .  T
C2404      N2406   1.157       .  T
C2407      C2408   1.402       .  A
C2407      C2412   1.409       .  A
C2408      C2409   1.399       .  A
C2409      C2410   1.409       .  A
C2409      C2416   1.443       .  S
C2410      C2411   1.403       .  A
C2411      C2412   1.395       .  A
C2411      H2414   1.086       .  S
C2412      C2415   1.443       .  S
C2415      N2417   1.157       .  T
C2419      C2420   1.407       .  A
C2419      C2424   1.424       .  A
C2420      C2421   1.400       .  A
C2420      H2425   1.084       .  S
C2421      C2422   1.409       .  A
C2421      C2428   1.445       .  S
C2422      C2423   1.398       .  A
C2423      C2424   1.404       .  A
C2423      H2426   1.085       .  S
C2424      C2427   1.441       .  S
C2427      N3239   1.157       .  T
C2428      N2430   1.157   1_556  T
N2429      C3237   1.156       .  T
N2431      C2705   1.365       .  A
N2431      C2432   1.366       .  A
N2431      C2759   1.452       .  S
C2432      C2433   1.381       .  A
C2432      C2692   1.485       .  S
C2433      C2704   1.359       .  A
C2433      H2436   1.083       .  S
C2434      C2973   1.364       .  A
C2434      C2435   1.377   1_556  A
C2434      H2437   1.079       .  S
C2435      N2971   1.360   1_554  A
C2435      C2680   1.470       .  S
N2438      C2712   1.359       .  A
N2438      C2439   1.357       .  A
N2438      C2482   1.441       .  S
C2439      C2440   1.382       .  A
C2439      C2668   1.479       .  S
C2440      C2711   1.363       .  A
C2440      H2443   1.079       .  S
C2441      C2980   1.364       .  A
C2441      C2442   1.383       .  A
C2441      H2444   1.083       .  S
C2442      N2978   1.356       .  A
C2442      C2656   1.469       .  S
N2445      C2989   1.373       .  A
N2445      C2446   1.371       .  A
N2445      C2478   1.455       .  S
C2446      C2447   1.383       .  A
C2446      C2629   1.485       .  S
C2447      C2988   1.351       .  A
C2447      H2450   1.083       .  S
C2448      C2717   1.350       .  A
C2448      C2449   1.381       .  A
C2448      H2451   1.078       .  S
C2449      N2715   1.373       .  A
C2449      C2644   1.490       .  S
N2452      C2726   1.358       .  A
N2452      C2453   1.357       .  A
N2452      C2516   1.444       .  S
C2453      C2454   1.381       .  A
C2453      C2617   1.461       .  S
C2454      C2725   1.361       .  A
C2454      H2457   1.082       .  S
C2455      C2994   1.362       .  A
C2455      C2456   1.379       .  A
C2455      H2458   1.081       .  S
C2456      N2992   1.354       .  A
C2456      C2605   1.464       .  S
N2459      C2733   1.366       .  A
N2459      C2460   1.361       .  A
N2459      C2784   1.445       .  S
C2460      C2461   1.375       .  A
C2460      C2593   1.486       .  S
C2461      C2732   1.365       .  A
C2461      H2464   1.083       .  S
C2462      C3001   1.362       .  A
C2462      C2463   1.385       .  A
C2462      H2465   1.083       .  S
C2463      N2999   1.368       .  A
C2463      C2581   1.488       .  S
N2466      C2470   1.354       .  A
N2466      C2737   1.356       .  A
N2466      C2490   1.435       .  S
C2467      N3006   1.355       .  A
C2467      C2468   1.375       .  A
C2467      C2560   1.478   1_556  S
C2468      C3009   1.368       .  A
C2468      H2471   1.083       .  S
C2469      C2738   1.366       .  A
C2469      C2470   1.388       .  A
C2469      H2472   1.083       .  S
C2470      C2569   1.466       .  S
O2473     Mg2475   2.159   1_655  S
O2473     Mg2751   2.179       .  S
O2473      C2508   1.235       .  S
C2474      O2511   1.270       .  A
Mg2475     O2789   2.320   1_455  S
O2476     Mg2501   2.133       .  S
O2477      C2508   1.269       .  A
C2478      O2480   1.276       .  A
C2478      O2492   1.280       .  A
O2479      C2507   1.272   1_655  A
O2479     Mg2481   2.314       .  S
O2480     Mg2512   2.312       .  S
Mg2481     O3013   2.176   1_554  S
Mg2481     O2487   2.195       .  S
Mg2481     O2495   2.351       .  S
Mg2481     O3023   2.348   1_554  S
C2482      O2520   1.273       .  A
C2482      O2488   1.278       .  A
O2483      C2490   1.277       .  A
O2483     Mg2751   2.336       .  S
C2485      H2510   1.081       .  S
C2485      O2499   1.234       .  S
C2485      O2500   1.271       .  A
O2488     Mg2788   2.314       .  S
C2489      N2971   1.448       .  S
C2489      O2502   1.275   1_556  A
C2489      O2494   1.275       .  A
C2490      O2517   1.270       .  A
Mg2491     O2498   2.193       .  S
Mg2491     O2769   2.198       .  S
Mg2491     O2762   2.331       .  S
Mg2491     O2493   2.285       .  S
Mg2491     O2520   2.279       .  S
O2492     Mg3031   2.353   1_554  S
O2493      C2497   1.266       .  A
O2494     Mg3041   2.311       .  S
O2495      C2514   1.280       .  A
O2496      C2516   1.283       .  A
O2498     Mg2782   2.170       .  S
O2498      C2509   1.237       .  S
O2499     Mg3031   2.168   1_554  S
O2499     Mg2518   2.207       .  S
O2500     Mg2512   2.313       .  S
Mg2501     O2764   2.286       .  S
H2503      C2508   1.081       .  S
H2506      C2509   1.081       .  S
Mg2512     O3038   2.176   1_554  S
C2514      N2999   1.451       .  S
C2514      O2519   1.278   1_554  A
O2515      C2516   1.270       .  A
Mg2518     O3028   2.294   1_554  S
O2519     Mg3015   2.315   1_655  S
C2521      C2525   1.556       .  S
C2521      C2665   1.526       .  S
C2522      H2529   1.087       .  S
C2522      C2523   1.354       .  D
C2523      C2524   1.550       .  S
C2523      C2677   1.470       .  S
C2524      C2528   1.536       .  S
C2524      H2530   1.110       .  S
C2525      H2531   1.084       .  S
C2525      C2526   1.374       .  D
C2526      C2608   1.480       .  S
C2527      H2532   1.088       .  S
C2527      C2528   1.360       .  D
C2528      C2596   1.479       .  S
C2533      C2537   1.567       .  S
C2533      C2557   1.534       .  S
C2534      H2541   1.085       .  S
C2534      C2535   1.361       .  D
C2535      C2536   1.544       .  S
C2535      C2689   1.485       .  S
C2536      C2540   1.529       .  S
C2536      H2542   1.106       .  S
C2537      H2543   1.079       .  S
C2537      C2538   1.380       .  D
C2538      C2620   1.494       .  S
C2539      H2544   1.087       .  S
C2539      C2540   1.354       .  D
C2540      C2632   1.486       .  S
C2545      C2546   1.524       .  S
C2545      C2551   1.538       .  S
C2545      C2549   1.534       .  S
C2545      C2653   1.532       .  S
C2546      H2553   1.084       .  S
C2546      C2547   1.368       .  D
C2547      C2548   1.563       .  S
C2547      C2641   1.514       .  S
C2548      C2552   1.538       .  S
C2548      C2550   1.537       .  S
C2548      H2554   1.102       .  S
C2549      H2555   1.087       .  S
C2549      C2550   1.362       .  D
C2550      C2572   1.466       .  S
C2551      H2556   1.079       .  S
C2551      C2552   1.365       .  D
C2552      C2584   1.494       .  S
C2557      C2558   1.411       .  A
C2557      C2562   1.426       .  A
C2558      C2559   1.399       .  A
C2558      H2563   1.078       .  S
C2559      C2560   1.408       .  A
C2559      C2566   1.446       .  S
C2560      C2561   1.396       .  A
C2561      C2562   1.399       .  A
C2561      H2564   1.083       .  S
C2565      N2567   1.157       .  T
C2566      N2568   1.157       .  T
C2569      C2570   1.402       .  A
C2569      C2574   1.405       .  A
C2570      C2571   1.384       .  A
C2570      H2575   1.086       .  S
C2571      C2572   1.399       .  A
C2571      C2578   1.438       .  S
C2572      C2573   1.405       .  A
C2573      C2574   1.405       .  A
C2573      H2576   1.084       .  S
C2574      C2577   1.442       .  S
C2577      N2579   1.157       .  T
C2578      N2580   1.154       .  T
C2581      C2582   1.402       .  A
C2581      C2586   1.419       .  A
C2582      C2583   1.411       .  A
C2582      H2587   1.085       .  S
C2583      C2584   1.418       .  A
C2583      C2590   1.438       .  S
C2584      C2585   1.396       .  A
C2585      C2586   1.386       .  A
C2585      H2588   1.085       .  S
C2586      C2589   1.439       .  S
C2589      N3131   1.155       .  T
C2590      N2592   1.157       .  T
N2591      C2859   1.156       .  T
C2593      C2594   1.401       .  A
C2593      C2598   1.414       .  A
C2594      C2595   1.402       .  A
C2594      H2599   1.082       .  S
C2595      C2596   1.410       .  A
C2596      C2597   1.397       .  A
C2597      C2598   1.400       .  A
C2597      H2600   1.085       .  S
C2598      C2601   1.437       .  S
C2601      N2603   1.155       .  T
C2602      N2604   1.156       .  T
C2605      C2606   1.399       .  A
C2605      C2610   1.406       .  A
C2606      C2607   1.400       .  A
C2606      H2611   1.085       .  S
C2607      C2608   1.411       .  A
C2607      C2614   1.439       .  S
C2608      C2609   1.399       .  A
C2609      C2610   1.395       .  A
C2610      C2613   1.446       .  S
C2614      N2616   1.157       .  T
C2617      C2618   1.403       .  A
C2617      C2622   1.398       .  A
C2618      C2619   1.398       .  A
C2618      H2623   1.079       .  S
C2619      C2620   1.414       .  A
C2619      C2626   1.441       .  S
C2620      C2621   1.411       .  A
C2621      C2622   1.388       .  A
C2622      C2625   1.439       .  S
C2626      N2628   1.157       .  T
C2629      C2630   1.399       .  A
C2629      C2634   1.420       .  A
C2630      C2631   1.399       .  A
C2630      H2635   1.077       .  S
C2631      C2632   1.419       .  A
C2631      C2638   1.445       .  S
C2632      C2633   1.391       .  A
C2633      C2634   1.398       .  A
C2633      H2636   1.085       .  S
C2634      C2637   1.437       .  S
C2637      N2639   1.154       .  T
C2641      C2642   1.418       .  A
C2641      C2646   1.417       .  A
C2642      C2643   1.405       .  A
C2642      H2647   1.082       .  S
C2643      C2644   1.406       .  A
C2643      C2650   1.439       .  S
C2644      C2645   1.408       .  A
C2645      C2646   1.398       .  A
C2645      H2648   1.086       .  S
C2646      C2649   1.441       .  S
C2649      N2651   1.158       .  T
C2650      N2652   1.156       .  T
C2653      C2654   1.409       .  A
C2653      C2658   1.422       .  A
C2654      C2655   1.390       .  A
C2654      H2659   1.074       .  S
C2655      C2656   1.406       .  A
C2655      C2662   1.440       .  S
C2656      C2657   1.398       .  A
C2657      C2658   1.395       .  A
C2657      H2660   1.086       .  S
C2658      C2661   1.441       .  S
C2661      N2663   1.156       .  T
C2662      N3204   1.155   1_554  T
N2664      C2932   1.154       .  T
C2665      C2666   1.404       .  A
C2665      C2670   1.427       .  A
C2666      C2667   1.394       .  A
C2666      H2671   1.079       .  S
C2667      C2668   1.416       .  A
C2667      C2674   1.445       .  S
C2668      C2669   1.394       .  A
C2669      C2670   1.395       .  A
C2669      H2672   1.080       .  S
C2673      N2675   1.157       .  T
C2674      N2676   1.157       .  T
C2677      C2678   1.399       .  A
C2677      C2682   1.407       .  A
C2678      C2679   1.395       .  A
C2679      C2680   1.409       .  A
C2679      C2686   1.440       .  S
C2680      C2681   1.405       .  A
C2681      C2682   1.401       .  A
C2681      H2684   1.084       .  S
C2682      C2685   1.444       .  S
C2685      N2687   1.157       .  T
C2689      C2690   1.401       .  A
C2689      C2694   1.412       .  A
C2690      C2691   1.393       .  A
C2690      H2695   1.084       .  S
C2691      C2692   1.411       .  A
C2691      C2698   1.442       .  S
C2692      C2693   1.406       .  A
C2693      C2694   1.407       .  A
C2693      H2696   1.084       .  S
C2694      C2697   1.442       .  S
C2698      N2700   1.156       .  T
N2701      C2975   1.363       .  A
N2701      C2702   1.366       .  A
N2701      C3029   1.456       .  S
C2702      C2703   1.383       .  A
C2702      C2962   1.483       .  S
C2703      C2974   1.358       .  A
C2703      H2706   1.082       .  S
C2704      C2705   1.376       .  A
C2704      H2707   1.077       .  S
C2705      C2950   1.476       .  S
N2708      C2982   1.358       .  A
N2708      C2709   1.361       .  A
N2708      C2752   1.448       .  S
C2709      C2710   1.384       .  A
C2709      C2938   1.474       .  S
C2710      C2981   1.361       .  A
C2710      H2713   1.083       .  S
C2711      C2712   1.380       .  A
C2711      H2714   1.083       .  S
C2712      C2926   1.478       .  S
N2715      C2716   1.362       .  A
N2715      C2748   1.447       .  S
C2716      C2717   1.374       .  A
C2716      C2899   1.473       .  S
C2717      H2720   1.077       .  S
C2718      C2987   1.350       .  A
C2718      C2719   1.379       .  A
C2718      H2721   1.078       .  S
C2719      N2985   1.370       .  A
C2719      C2914   1.482       .  S
N2722      C2996   1.360       .  A
N2722      C2723   1.363       .  A
N2722      C2786   1.451       .  S
C2723      C2724   1.382       .  A
C2723      C2887   1.466       .  S
C2724      C2995   1.359       .  A
C2724      H2727   1.082       .  S
C2725      C2726   1.378       .  A
C2725      H2728   1.081       .  S
C2726      C2875   1.467       .  S
N2729      C3003   1.369       .  A
N2729      C2730   1.363       .  A
N2729      C3054   1.449       .  S
C2730      C2731   1.376       .  A
C2730      C2863   1.490       .  S
C2731      C3002   1.363       .  A
C2731      H2734   1.082       .  S
C2732      C2733   1.385       .  A
C2732      H2735   1.080       .  S
C2733      C2851   1.492       .  S
N2736      C2740   1.354       .  A
N2736      C3007   1.354       .  A
N2736      C2760   1.437       .  S
C2737      C2738   1.377       .  A
C2737      C2830   1.480       .  S
C2738      H2741   1.082       .  S
C2739      C3008   1.365       .  A
C2739      C2740   1.389       .  A
C2739      H2742   1.083       .  S
C2740      C2839   1.464       .  S
O2743     Mg2745   2.148       .  S
O2743     Mg3021   2.175       .  S
O2743      C2778   1.235       .  S
C2744      O2781   1.269       .  A
Mg2745     O3059   2.327       .  S
O2746     Mg2771   2.148       .  S
O2747      C2778   1.269       .  A
C2748      O2750   1.274       .  A
C2748      O2762   1.275       .  A
O2749      C2777   1.272   1_655  A
O2749     Mg2751   2.315       .  S
O2750     Mg2782   2.289       .  S
Mg2751     O2757   2.170       .  S
Mg2751     O2765   2.319       .  S
C2752      O2790   1.276       .  A
C2752      O2758   1.280       .  A
O2753      C2760   1.280       .  A
O2753     Mg3021   2.354       .  S
C2755      H2780   1.081       .  S
C2755      O2769   1.235       .  S
C2755      O2770   1.271       .  A
O2758     Mg3058   2.336       .  S
C2759      O2772   1.277       .  A
C2759      O2764   1.273       .  A
C2760      O2787   1.271       .  A
Mg2761     O2768   2.199       .  S
Mg2761     O3039   2.183       .  S
Mg2761     O3032   2.354       .  S
Mg2761     O2763   2.298       .  S
Mg2761     O2790   2.300       .  S
O2763      C2767   1.268       .  A
O2765      C2784   1.275       .  A
O2766      C2786   1.284       .  A
O2768     Mg3052   2.175       .  S
O2768      C2779   1.238       .  S
O2769     Mg2788   2.195       .  S
O2770     Mg2782   2.305       .  S
Mg2771     O3034   2.293       .  S
H2773      C2778   1.081       .  S
H2776      C2779   1.081       .  S
C2784      O2789   1.279       .  A
O2785      C2786   1.272       .  A
C2791      C2795   1.560       .  S
C2791      C2935   1.521       .  S
C2792      H2799   1.087       .  S
C2792      C2793   1.356       .  D
C2793      C2794   1.553       .  S
C2793      C2947   1.474       .  S
C2794      C2798   1.546       .  S
C2794      H2800   1.110       .  S
C2795      H2801   1.083       .  S
C2795      C2796   1.381       .  D
C2796      C2878   1.485       .  S
C2797      H2802   1.087       .  S
C2797      C2798   1.364       .  D
C2798      C2866   1.489       .  S
C2803      C2807   1.566       .  S
C2803      C2827   1.533       .  S
C2804      H2811   1.085       .  S
C2804      C2805   1.359       .  D
C2805      C2806   1.554       .  S
C2805      C2959   1.484       .  S
C2806      C2810   1.524       .  S
C2806      H2812   1.102       .  S
C2807      H2813   1.076       .  S
C2807      C2808   1.385       .  D
C2808      C2890   1.510       .  S
C2809      H2814   1.084       .  S
C2809      C2810   1.353       .  D
C2810      C2902   1.490       .  S
C2815      C2816   1.527       .  S
C2815      C2821   1.541       .  S
C2815      C2819   1.534       .  S
C2815      C2923   1.535       .  S
C2816      H2823   1.085       .  S
C2816      C2817   1.369       .  D
C2817      C2818   1.559       .  S
C2817      C2911   1.509       .  S
C2818      C2822   1.538       .  S
C2818      C2820   1.539       .  S
C2818      H2824   1.103       .  S
C2819      H2825   1.086       .  S
C2819      C2820   1.362       .  D
C2820      C2842   1.466       .  S
C2821      H2826   1.081       .  S
C2821      C2822   1.366       .  D
C2822      C2854   1.500       .  S
C2827      C2828   1.408       .  A
C2827      C2832   1.425       .  A
C2828      C2829   1.400       .  A
C2828      H2833   1.078       .  S
C2829      C2830   1.410       .  A
C2829      C2836   1.445       .  S
C2830      C2831   1.397       .  A
C2831      C2832   1.399       .  A
C2831      H2834   1.082       .  S
C2835      N2837   1.156       .  T
C2836      N2838   1.157       .  T
C2839      C2840   1.401       .  A
C2839      C2844   1.404       .  A
C2840      C2841   1.385       .  A
C2840      H2845   1.086       .  S
C2841      C2842   1.403       .  A
C2841      C2848   1.440       .  S
C2842      C2843   1.404       .  A
C2843      C2844   1.403       .  A
C2843      H2846   1.084       .  S
C2844      C2847   1.442       .  S
C2847      N2849   1.157       .  T
C2848      N2850   1.155       .  T
C2851      C2852   1.402       .  A
C2851      C2856   1.420       .  A
C2852      C2853   1.412       .  A
C2852      H2857   1.085       .  S
C2853      C2854   1.419       .  A
C2853      C2860   1.439       .  S
C2854      C2855   1.400       .  A
C2855      C2856   1.391       .  A
C2855      H2858   1.086       .  S
C2856      C2859   1.443       .  S
C2860      N2862   1.157       .  T
N2861      C3129   1.157       .  T
C2863      C2864   1.402       .  A
C2863      C2868   1.413       .  A
C2864      C2865   1.407       .  A
C2864      H2869   1.082       .  S
C2865      C2866   1.410       .  A
C2866      C2867   1.398       .  A
C2867      C2868   1.401       .  A
C2867      H2870   1.080       .  S
C2868      C2871   1.438       .  S
C2871      N2873   1.155       .  T
C2872      N2874   1.154       .  T
C2875      C2876   1.401       .  A
C2875      C2880   1.409       .  A
C2876      C2877   1.405       .  A
C2876      H2881   1.085       .  S
C2877      C2878   1.414       .  A
C2877      C2884   1.438       .  S
C2878      C2879   1.395       .  A
C2879      C2880   1.385       .  A
C2880      C2883   1.444       .  S
C2884      N2886   1.157       .  T
C2887      C2888   1.406       .  A
C2887      C2892   1.396       .  A
C2888      C2889   1.401       .  A
C2888      H2893   1.084       .  S
C2889      C2890   1.417       .  A
C2889      C2896   1.443       .  S
C2890      C2891   1.417       .  A
C2891      C2892   1.391       .  A
C2892      C2895   1.441       .  S
C2896      N2898   1.158       .  T
C2899      C2900   1.399       .  A
C2899      C2904   1.413       .  A
C2900      C2901   1.398       .  A
C2900      H2905   1.082       .  S
C2901      C2902   1.420       .  A
C2901      C2908   1.445       .  S
C2902      C2903   1.399       .  A
C2903      C2904   1.398       .  A
C2903      H2906   1.084       .  S
C2904      C2907   1.440       .  S
C2907      N2909   1.155       .  T
C2911      C2912   1.418       .  A
C2911      C2916   1.418       .  A
C2912      C2913   1.407       .  A
C2912      H2917   1.083       .  S
C2913      C2914   1.406       .  A
C2913      C2920   1.443       .  S
C2914      C2915   1.403       .  A
C2915      C2916   1.396       .  A
C2915      H2918   1.087       .  S
C2916      C2919   1.441       .  S
C2919      N2921   1.158       .  T
C2920      N2922   1.157       .  T
C2923      C2924   1.408       .  A
C2923      C2928   1.421       .  A
C2924      C2925   1.393       .  A
C2924      H2929   1.078       .  S
C2925      C2926   1.407       .  A
C2925      C2932   1.435       .  S
C2926      C2927   1.400       .  A
C2927      C2928   1.400       .  A
C2927      H2930   1.085       .  S
C2928      C2931   1.441       .  S
C2931      N2933   1.156       .  T
N2934      C3202   1.154       .  T
C2935      C2936   1.401       .  A
C2935      C2940   1.430       .  A
C2936      C2937   1.396       .  A
C2936      H2941   1.080       .  S
C2937      C2938   1.418       .  A
C2937      C2944   1.446       .  S
C2938      C2939   1.390       .  A
C2939      C2940   1.392       .  A
C2939      H2942   1.082       .  S
C2943      N2945   1.157       .  T
C2944      N2946   1.157       .  T
C2947      C2948   1.403       .  A
C2947      C2952   1.408       .  A
C2948      C2949   1.401       .  A
C2949      C2950   1.408       .  A
C2949      C2956   1.437       .  S
C2950      C2951   1.404       .  A
C2951      C2952   1.396       .  A
C2951      H2954   1.086       .  S
C2952      C2955   1.442       .  S
C2955      N2957   1.157       .  T
C2959      C2960   1.396       .  A
C2959      C2964   1.409       .  A
C2960      C2961   1.389       .  A
C2960      H2965   1.077       .  S
C2961      C2962   1.411       .  A
C2961      C2968   1.443       .  S
C2962      C2963   1.408       .  A
C2963      C2964   1.407       .  A
C2963      H2966   1.083       .  S
C2964      C2967   1.441       .  S
C2968      N2970   1.156       .  T
N2971      C2972   1.362       .  A
C2972      C2973   1.379       .  A
C2972      C3232   1.474       .  S
C2973      H2976   1.083       .  S
C2974      C2975   1.380       .  A
C2974      H2977   1.082       .  S
C2975      C3220   1.471       .  S
N2978      C2979   1.353   1_554  A
N2978      C3022   1.443   1_554  S
C2979      C2980   1.380   1_556  A
C2979      C3208   1.461       .  S
C2980      H2983   1.081       .  S
C2981      C2982   1.380       .  A
C2981      H2984   1.083       .  S
C2982      C3196   1.473       .  S
N2985      C2986   1.368       .  A
N2985      C3018   1.451       .  S
C2986      C2987   1.381       .  A
C2986      C3169   1.479       .  S
C2987      H2990   1.082       .  S
C2988      C2989   1.379       .  A
C2988      H2991   1.082   1_554  S
C2989      C3184   1.486   1_554  S
N2992      C2993   1.357   1_554  A
N2992      C3056   1.444   1_554  S
C2993      C2994   1.383   1_556  A
C2993      C3157   1.468       .  S
C2994      H2997   1.083   1_554  S
C2995      C2996   1.380       .  A
C2995      H2998   1.083       .  S
C2996      C3145   1.468       .  S
N2999      C3000   1.365   1_554  A
C3000      C3001   1.376   1_556  A
C3000      C3133   1.488       .  S
C3001      H3004   1.082   1_554  S
C3002      C3003   1.384       .  A
C3002      H3005   1.081       .  S
C3003      C3121   1.494       .  S
N3006      C3010   1.357       .  A
N3006      C3030   1.437       .  S
C3007      C3008   1.375       .  A
C3007      C3100   1.472       .  S
C3008      H3011   1.082       .  S
C3009      C3010   1.389       .  A
C3009      H3012   1.082       .  S
C3010      C3109   1.474       .  S
O3013     Mg3015   2.163   1_655  S
O3013      C3048   1.236       .  S
C3014      O3051   1.269       .  A
O3016     Mg3041   2.141       .  S
O3017      C3048   1.271       .  A
C3018      O3020   1.274       .  A
C3018      O3032   1.280       .  A
O3019      C3047   1.273       .  A
O3019     Mg3021   2.319       .  S
O3020     Mg3052   2.296       .  S
Mg3021     O3027   2.179       .  S
Mg3021     O3035   2.335       .  S
C3022      O3060   1.276       .  A
C3022      O3028   1.273       .  A
O3023      C3030   1.279       .  A
C3025      H3050   1.081       .  S
C3025      O3039   1.235       .  S
C3025      O3040   1.271       .  A
C3029      O3042   1.282       .  A
C3029      O3034   1.275       .  A
C3030      O3057   1.273       .  A
Mg3031     O3038   2.204       .  S
Mg3031     O3033   2.302       .  S
Mg3031     O3060   2.302       .  S
O3033      C3037   1.269       .  A
O3035      C3054   1.278       .  A
O3036      C3056   1.278       .  A
O3038      C3049   1.239       .  S
O3039     Mg3058   2.193       .  S
O3040     Mg3052   2.307       .  S
H3043      C3048   1.081       .  S
H3046      C3049   1.081       .  S
C3054      O3059   1.281       .  A
O3055      C3056   1.271       .  A
C3061      C3065   1.547       .  S
C3061      C3205   1.524       .  S
C3062      H3069   1.087       .  S
C3062      C3063   1.353       .  D
C3063      C3064   1.552       .  S
C3063      C3217   1.472       .  S
C3064      C3068   1.542       .  S
C3064      H3070   1.110       .  S
C3065      H3071   1.082       .  S
C3065      C3066   1.375       .  D
C3066      C3148   1.484       .  S
C3067      H3072   1.087       .  S
C3067      C3068   1.364       .  D
C3068      C3136   1.485       .  S
C3073      C3077   1.552       .  S
C3073      C3097   1.529       .  S
C3074      H3081   1.083       .  S
C3074      C3075   1.364       .  D
C3075      C3076   1.557       .  S
C3075      C3229   1.497       .  S
C3076      C3080   1.524       .  S
C3076      H3082   1.100       .  S
C3077      H3083   1.074       .  S
C3077      C3078   1.376       .  D
C3078      C3160   1.499       .  S
C3079      H3084   1.082       .  S
C3079      C3080   1.352       .  D
C3080      C3172   1.492       .  S
C3085      C3086   1.525       .  S
C3085      C3091   1.539       .  S
C3085      C3089   1.536       .  S
C3085      C3193   1.535       .  S
C3086      H3093   1.086       .  S
C3086      C3087   1.366       .  D
C3087      C3088   1.562       .  S
C3087      C3181   1.507       .  S
C3088      C3092   1.544       .  S
C3088      C3090   1.542       .  S
C3088      H3094   1.105       .  S
C3089      H3095   1.087       .  S
C3089      C3090   1.363       .  D
C3090      C3112   1.474       .  S
C3091      H3096   1.079       .  S
C3091      C3092   1.367       .  D
C3092      C3124   1.502       .  S
C3097      C3098   1.409       .  A
C3097      C3102   1.423       .  A
C3098      C3099   1.398       .  A
C3098      H3103   1.078       .  S
C3099      C3100   1.409       .  A
C3099      C3106   1.446       .  S
C3100      C3101   1.394       .  A
C3101      C3102   1.393       .  A
C3101      H3104   1.082       .  S
C3105      N3107   1.155       .  T
C3106      N3108   1.157       .  T
C3109      C3110   1.404       .  A
C3109      C3114   1.406       .  A
C3110      C3111   1.389       .  A
C3110      H3115   1.086       .  S
C3111      C3112   1.402       .  A
C3111      C3118   1.439       .  S
C3112      C3113   1.405       .  A
C3113      C3114   1.406       .  A
C3113      H3116   1.083       .  S
C3114      C3117   1.442       .  S
C3117      N3119   1.157       .  T
C3118      N3120   1.154       .  T
C3121      C3122   1.404       .  A
C3121      C3126   1.422       .  A
C3122      C3123   1.413       .  A
C3122      H3127   1.084       .  S
C3123      C3124   1.417       .  A
C3123      C3130   1.439       .  S
C3124      C3125   1.401       .  A
C3125      C3126   1.391       .  A
C3125      H3128   1.084       .  S
C3126      C3129   1.445       .  S
C3130      N3132   1.157       .  T
C3133      C3134   1.400       .  A
C3133      C3138   1.416       .  A
C3134      C3135   1.403       .  A
C3134      H3139   1.082       .  S
C3135      C3136   1.412       .  A
C3136      C3137   1.397       .  A
C3137      C3138   1.401       .  A
C3137      H3140   1.083       .  S
C3138      C3141   1.440       .  S
C3141      N3143   1.156       .  T
C3142      N3144   1.156       .  T
C3145      C3146   1.401       .  A
C3145      C3150   1.410       .  A
C3146      C3147   1.399       .  A
C3146      H3151   1.084       .  S
C3147      C3148   1.414       .  A
C3147      C3154   1.443       .  S
C3148      C3149   1.401       .  A
C3149      C3150   1.397       .  A
C3150      C3153   1.444       .  S
C3154      N3156   1.157       .  T
C3157      C3158   1.404       .  A
C3157      C3162   1.398       .  A
C3158      C3159   1.396       .  A
C3158      H3163   1.086       .  S
C3159      C3160   1.420       .  A
C3159      C3166   1.444       .  S
C3160      C3161   1.412       .  A
C3161      C3162   1.393       .  A
C3162      C3165   1.439       .  S
C3166      N3168   1.158       .  T
C3169      C3170   1.397       .  A
C3169      C3174   1.415       .  A
C3170      C3171   1.399       .  A
C3170      H3175   1.078       .  S
C3171      C3172   1.422       .  A
C3171      C3178   1.445       .  S
C3172      C3173   1.398       .  A
C3173      C3174   1.401       .  A
C3173      H3176   1.084       .  S
C3174      C3177   1.438       .  S
C3177      N3179   1.155       .  T
C3181      C3182   1.416       .  A
C3181      C3186   1.414       .  A
C3182      C3183   1.406       .  A
C3182      H3187   1.083       .  S
C3183      C3184   1.407       .  A
C3183      C3190   1.442       .  S
C3184      C3185   1.407       .  A
C3185      C3186   1.400       .  A
C3185      H3188   1.086       .  S
C3186      C3189   1.441       .  S
C3189      N3191   1.157       .  T
C3190      N3192   1.157       .  T
C3193      C3194   1.411       .  A
C3193      C3198   1.421       .  A
C3194      C3195   1.394       .  A
C3194      H3199   1.076       .  S
C3195      C3196   1.406       .  A
C3195      C3202   1.437       .  S
C3196      C3197   1.397       .  A
C3197      C3198   1.396       .  A
C3197      H3200   1.086       .  S
C3198      C3201   1.442       .  S
C3201      N3203   1.156       .  T
C3205      C3206   1.407       .  A
C3205      C3210   1.427       .  A
C3206      C3207   1.395       .  A
C3206      H3211   1.078       .  S
C3207      C3208   1.409       .  A
C3207      C3214   1.446       .  S
C3208      C3209   1.389       .  A
C3209      C3210   1.391       .  A
C3209      H3212   1.084       .  S
C3213      N3215   1.156       .  T
C3214      N3216   1.157       .  T
C3217      C3218   1.402       .  A
C3217      C3222   1.409       .  A
C3218      C3219   1.400       .  A
C3219      C3220   1.410       .  A
C3219      C3226   1.440       .  S
C3220      C3221   1.403       .  A
C3221      C3222   1.394       .  A
C3221      H3224   1.086       .  S
C3222      C3225   1.444       .  S
C3225      N3227   1.157       .  T
C3229      C3230   1.404       .  A
C3229      C3234   1.418       .  A
C3230      C3231   1.396       .  A
C3230      H3235   1.077       .  S
C3231      C3232   1.405       .  A
C3231      C3238   1.444       .  S
C3232      C3233   1.398       .  A
C3233      C3234   1.402       .  A
C3233      H3236   1.083       .  S
C3234      C3237   1.438       .  S
C3238      N3240   1.157   1_556  T
