geometry optimzed in LAMMPS
_audit_creation_date              2020-11-30 
_audit_creation_method            'lammps2cif' 
_symmetry_space_group_name_H-M    'P1' 
_symmetry_Int_Tables_number       1 
_symmetry_cell_setting            triclinic 
loop_ 
_symmetry_equiv_pos_as_xyz 
  x,y,z 
_cell_length_a                    35.16525634 
_cell_length_b                    35.303727438451325 
_cell_length_c                    41.18458869438931 
_cell_angle_alpha                 89.60163521604507 
_cell_angle_beta                  90.32438172058689 
_cell_angle_gamma                 120.04909450071877 
loop_ 
_atom_site_label 
_atom_site_type_symbol 
_atom_site_fract_x 
_atom_site_fract_y 
_atom_site_fract_z 
_atom_site_charge 
Fe1        Fe  0.35382787  0.12372203  0.25252273     1.65800
Fe2        Fe  0.27035846  0.14544439  0.25140087     1.73200
Fe3        Fe  0.37578925  0.22870742  0.25220504     1.54400
O4          O  0.40826731  0.22460696  0.29251750    -0.82100
O5          O  0.27677728  0.19639538  0.22255269    -0.80400
O6          O  0.40651489  0.16160947  0.28277606    -0.84600
O7          O  0.39242288  0.15226050  0.21195389    -0.79500
O8          O  0.33737727  0.24284601  0.28209192    -0.81300
O9          O  0.26123208  0.10800893  0.21035609    -0.84000
C10         C  0.42158139  0.19219472  0.20841645     0.96800
C11         C  0.42236117  0.19823753  0.29706861     1.04200
O12         O  0.33334454  0.16596773  0.25245972    -1.13000
O13         O  0.25512580  0.09227503  0.28119154    -0.75400
O14         O  0.31657584  0.09086918  0.29252205    -0.78900
O15         O  0.42036109  0.22295733  0.22321759    -0.79600
C16         C  0.27583844  0.07668169  0.29632162     0.95700
O17         O  0.30369019  0.07979840  0.22293790    -0.77600
O18         O  0.27396912  0.18135859  0.29174599    -0.82700
C19         C  0.30793074  0.22866753  0.20794865     0.98300
C20         C  0.30063872  0.22170878  0.29651024     1.04200
O21         O  0.34779695  0.23880810  0.21123983    -0.78400
C22         C  0.27204546  0.07885536  0.20730029     1.02500
Fe23       Fe  0.12470316  0.35361922  0.25039030     1.65800
Fe24       Fe  0.14679585  0.27049303  0.25107025     1.73200
Fe25       Fe  0.23021519  0.37588058  0.25216142     1.54400
O26         O  0.22447446  0.42042334  0.22252842    -0.82100
O27         O  0.18329559  0.27386674  0.29132043    -0.80400
O28         O  0.15377325  0.39219162  0.20969982    -0.84600
O29         O  0.16197846  0.40609089  0.28056838    -0.79500
O30         O  0.24146169  0.34823872  0.21175268    -0.81300
O31         O  0.09410581  0.25568229  0.28113453    -0.84000
C32         C  0.19808615  0.42157906  0.29592142     0.96800
C33         C  0.19385667  0.42167521  0.20694157     1.04200
O34         O  0.16725735  0.33328514  0.25151484    -1.13000
O35         O  0.10835926  0.26046562  0.21014961    -0.75400
O36         O  0.08054369  0.30336329  0.22114572    -0.78900
O37         O  0.22487679  0.40777985  0.29217425    -0.79600
C38         C  0.07899066  0.27104569  0.20665967     0.95700
O39         O  0.09173442  0.31676006  0.29044292    -0.77600
O40         O  0.19752257  0.27717053  0.22208575    -0.82700
C41         C  0.22367044  0.30048468  0.29645460     0.98300
C42         C  0.23041332  0.30833264  0.20798263     1.04200
O43         O  0.24462803  0.33764675  0.28260131    -0.78400
C44         C  0.07831356  0.27651056  0.29544365     1.02500
C45         C  0.31760116  0.31664511  0.15343346     0.79800
N46         N  0.32399586  0.28457107  0.16611438    -0.78500
C47         C  0.29749210  0.25823945  0.19006543     0.82200
N48         N  0.26524454  0.26468246  0.20172201    -0.78500
C49         C  0.25951143  0.29746275  0.19007818     0.82300
N50         N  0.28593136  0.32366821  0.16602180    -0.80200
C51         C  0.30724855  0.30501863  0.35292797     0.79800
N52         N  0.27577182  0.31223604  0.33991438    -0.78500
C53         C  0.24904974  0.28624209  0.31597788     0.82200
N54         N  0.25489958  0.25379315  0.30415163    -0.78500
C55         C  0.28697148  0.24700211  0.31618185     0.82300
N56         N  0.31363466  0.27322804  0.34012839    -0.80200
C57         C  0.18915598  0.49907312  0.35015570     0.79800
N58         N  0.22192915  0.03683396  0.33860233    -0.78500
C59         C  0.24969790  0.03728835  0.31568796     0.82200
N60         N  0.24384240  0.49923002  0.30373134    -0.78500
C61         C  0.21102046  0.46066309  0.31530042     0.82300
N62         N  0.18330373  0.46070418  0.33811389    -0.80200
C63         C  0.18769081  0.50003787  0.14969375     0.79800
N64         N  0.21880644  0.03952199  0.16346640    -0.78500
C65         C  0.24395219  0.03932811  0.18851497     0.82200
N66         N  0.23730701  0.50027184  0.20025328    -0.78500
C67         C  0.20531933  0.46161047  0.18834841     0.82300
N68         N  0.18002968  0.46155174  0.16334175    -0.80200
C69         C  0.99883709  0.18417835  0.15219182     0.79800
N70         N  0.03789403  0.21570422  0.16471555    -0.78500
C71         C  0.03856639  0.24193707  0.18889444     0.82200
N72         N  0.00015324  0.23576039  0.20105553    -0.78500
C73         C  0.46115442  0.20332244  0.18977780     0.82300
N74         N  0.46055570  0.17722383  0.16557993    -0.80200
C75         C  0.50172549  0.19317472  0.35263568     0.79800
N76         N  0.46287684  0.18630127  0.34019679    -0.78500
C77         C  0.46214087  0.21232944  0.31618015     0.82200
N78         N  0.50047442  0.24449337  0.30377358    -0.78500
C79         C  0.03942635  0.25103599  0.31536807     0.82300
N80         N  0.03994875  0.22489166  0.33944470    -0.80200
Fe81       Fe  0.49986904  0.44482191  0.49818327     1.65800
Fe82       Fe  0.44187454  0.49935335  0.99990285     1.73200
Fe83       Fe  0.05496547  0.05661463  0.99994838     1.54400
O84         O  0.08322307  0.03522747  0.03409129    -0.82100
O85         O  0.46117638  0.04592283  0.46375664    -0.80400
O86         O  0.04184817  0.46119004  0.03731468    -0.84600
O87         O  0.04942274  0.46693437  0.46410571    -0.79500
O88         O  0.03586319  0.08097746  0.03768985    -0.81300
O89         O  0.41556627  0.45289738  0.46249685    -0.84000
C90         C  0.07663353  0.00231062  0.45190997     0.96800
C91         C  0.07378630  0.49736566  0.04674604     1.04200
O92         O  0.49813827  0.49927470  0.99956472    -1.13000
O93         O  0.41475008  0.45281748  0.03588118    -0.75400
O94         O  0.44852463  0.41394217  0.03280217    -0.78900
O95         O  0.08085471  0.03826679  0.46154275    -0.79600
C96         C  0.41983428  0.42130145  0.04492869     0.95700
O97         O  0.45532479  0.41978965  0.46066103    -0.77600
O98         O  0.46279102  0.04727805  0.03564105    -0.82700
C99         C  0.49765419  0.07788945  0.45494599     0.98300
C100        C  0.99944745  0.07498189  0.04817510     1.04200
O101        O  0.03398033  0.08495308  0.46679452    -0.78400
C102        C  0.42405447  0.42492727  0.45049603     1.02500
C103        C  0.46377710  0.14105856  0.39794455    -0.12700
C104        C  0.50173736  0.16428154  0.37892563     0.04300
C105        C  0.03836661  0.15904135  0.38546765    -0.08000
C106        C  0.03643378  0.13143650  0.41067202    -0.08700
C107        C  0.49833013  0.10793146  0.42943474    -0.03300
C108        C  0.46169492  0.11309731  0.42291423     0.03500
N109        N  0.42254562  0.09129784  0.44193177     0.66000
H110        H  0.43541359  0.14487341  0.39371072     0.14900
H111        H  0.06468243  0.12741168  0.41490015     0.14600
N112        N  0.07697561  0.17954401  0.36581380     0.73700
O113        O  0.41932019  0.10926996  0.46733154    -0.39700
O114        O  0.38858501  0.05929204  0.43004114    -0.39700
O115        O  0.11196044  0.21081942  0.37718442    -0.40400
O116        O  0.07837948  0.16117858  0.34003210    -0.40400
C117        C  0.03473814  0.15027032  0.12150698    -0.12700
C118        C  0.99820233  0.15577664  0.12565794     0.04300
C119        C  0.46185615  0.13380360  0.10442164    -0.08000
C120        C  0.46283756  0.10728801  0.07979957    -0.08700
C121        C  0.99950660  0.10200689  0.07555259    -0.03300
C122        C  0.03566109  0.12360985  0.09695558     0.03500
N123        N  0.07302912  0.11786165  0.09486533     0.66000
H124        H  0.06269610  0.16620743  0.13777289     0.14900
H125        H  0.43493959  0.09151860  0.06346047     0.14600
N126        N  0.42439535  0.13937139  0.10657796     0.73700
O127        O  0.10778090  0.14719072  0.08169294    -0.39700
O128        O  0.07418086  0.08840324  0.11164158    -0.39700
O129        O  0.42235218  0.16765500  0.08892029    -0.40400
O130        O  0.39016750  0.11049803  0.12060567    -0.40400
C131        C  0.14665146  0.53083204  0.07403844    -0.12700
C132        C  0.10233271  0.49764439  0.07342106     0.04300
C133        C  0.08657671  0.46543133  0.09809758    -0.08000
C134        C  0.11514859  0.46645396  0.12225817    -0.08700
C135        C  0.15939396  0.49957600  0.12285029    -0.03300
C136        C  0.17517210  0.53202650  0.09835621     0.03500
N137        N  0.22043986  0.56519204  0.09689268     0.66000
H138        H  0.15958538  0.55563416  0.05511432     0.14900
H139        H  0.10216627  0.44184792  0.14132098     0.14600
N140        N  0.04106669  0.43344106  0.10049327     0.73700
O141        O  0.24722530  0.55767107  0.08201741    -0.39700
O142        O  0.22953395  0.10675139  0.10747166    -0.39700
O143        O  0.02826876  0.39438722  0.09260121    -0.40400
O144        O  0.01748282  0.93888962  0.11892997    -0.40400
C145        C  0.17192160  0.03780598  0.39287233    -0.12700
C146        C  0.15933450  0.49963774  0.37542951     0.04300
C147        C  0.11809693  0.46264251  0.38277354    -0.08000
C148        C  0.09222856  0.46480562  0.40759118    -0.08700
C149        C  0.10537849  0.00242258  0.42554720    -0.03300
C150        C  0.14559921  0.04004660  0.41727945     0.03500
N151        N  0.16120954  0.08045167  0.43413314     0.66000
H152        H  0.20294877  0.06701353  0.38751116     0.14900
H153        H  0.06070563  0.43602298  0.41263994     0.14600
N154        N  0.10102879  0.42303502  0.36463442     0.73700
O155        O  0.18452640  0.08781774  0.45927164    -0.39700
O156        O  0.15933135  0.11159644  0.42049598    -0.39700
O157        O  0.10028938  0.39001102  0.37727449    -0.40400
O158        O  0.07905731  0.41850444  0.33916254    -0.40400
C159        C  0.39159735  0.35425608  0.42112829    -0.12700
C160        C  0.39536955  0.39557487  0.42450718     0.04300
C161        C  0.37016472  0.40678585  0.40403680    -0.08000
C162        C  0.34168283  0.37673278  0.38119490    -0.08700
C163        C  0.33754217  0.33520710  0.37798686    -0.03300
C164        C  0.36303030  0.32411651  0.39834142     0.03500
N165        N  0.35913541  0.28186172  0.39726709     0.66000
H166        H  0.41011387  0.34462868  0.43692688     0.14900
H167        H  0.32312470  0.38645280  0.36553747     0.14600
N168        N  0.37388785  0.44893446  0.40539308     0.73700
O169        O  0.38786037  0.27712158  0.38256803    -0.39700
O170        O  0.33311286  0.25229748  0.41646825    -0.39700
O171        O  0.40048755  0.47897240  0.38675063    -0.40400
O172        O  0.34452091  0.45314469  0.41958677    -0.40400
C173        C  0.41134719  0.37713008  0.09405585    -0.12700
C174        C  0.39244489  0.39282377  0.07156771     0.04300
C175        C  0.34846559  0.38231732  0.07573454    -0.08000
C176        C  0.32497299  0.35803247  0.10283918    -0.08700
C177        C  0.34435786  0.34342379  0.12588392    -0.03300
C178        C  0.38808831  0.35313359  0.12128026     0.03500
N179        N  0.41016327  0.34099366  0.14479160     0.66000
H180        H  0.44496850  0.38451152  0.09090331     0.14900
H181        H  0.29089475  0.34955458  0.10538392     0.14600
N182        N  0.32619068  0.39303598  0.05144746     0.73700
O183        O  0.41683340  0.30977624  0.13888077    -0.39700
O184        O  0.43057401  0.36668558  0.16785550    -0.39700
O185        O  0.30560461  0.36584738  0.02922462    -0.40400
O186        O  0.31893417  0.42411950  0.05619501    -0.40400
Fe187      Fe  0.35244226  0.12309563  0.75235901     1.65800
Fe188      Fe  0.26971577  0.14593544  0.75058641     1.73200
Fe189      Fe  0.37567353  0.22854944  0.75113839     1.54400
O190        O  0.40834896  0.22462008  0.79137278    -0.82100
O191        O  0.27671651  0.19689150  0.72136686    -0.80400
O192        O  0.40512657  0.16075564  0.78252146    -0.84600
O193        O  0.39141602  0.15095267  0.71184478    -0.79500
O194        O  0.33792314  0.24344997  0.78099554    -0.81300
O195        O  0.26014710  0.10775224  0.70983003    -0.84000
C196        C  0.42065518  0.19077825  0.70783910     0.96800
C197        C  0.42181946  0.19781436  0.79622891     1.04200
O198        O  0.33263203  0.16588370  0.75177478    -1.13000
O199        O  0.25371083  0.09273774  0.78069819    -0.75400
O200        O  0.31472806  0.09066608  0.79232920    -0.78900
O201        O  0.41966329  0.22195764  0.72214997    -0.79600
C202        C  0.27398222  0.07669260  0.79588511     0.95700
O203        O  0.30235299  0.07938732  0.72284510    -0.77600
O204        O  0.27383438  0.18264462  0.79061994    -0.82700
C205        C  0.30806553  0.22907917  0.70681699     0.98300
C206        C  0.30107994  0.22290108  0.79531968     1.04200
O207        O  0.34781868  0.23887141  0.71017659    -0.78400
C208        C  0.27086283  0.07847119  0.70704943     1.02500
Fe209      Fe  0.12363843  0.35293803  0.74837064     1.65800
Fe210      Fe  0.14670899  0.27029084  0.74913312     1.73200
Fe211      Fe  0.22948186  0.37600863  0.75027936     1.54400
O212        O  0.22352652  0.42032018  0.72080598    -0.82100
O213        O  0.18373467  0.27409962  0.78924899    -0.80400
O214        O  0.15285659  0.39222223  0.70795825    -0.84600
O215        O  0.16035352  0.40523312  0.77899374    -0.79500
O216        O  0.24130569  0.34863870  0.70992802    -0.81300
O217        O  0.09418006  0.25506147  0.77940609    -0.84000
C218        C  0.19649310  0.42083817  0.79434980     0.96800
C219        C  0.19295453  0.42179603  0.70540862     1.04200
O220        O  0.16659040  0.33301259  0.74949275    -1.13000
O221        O  0.10763705  0.25953096  0.70842666    -0.75400
O222        O  0.07985082  0.30263843  0.71884603    -0.78900
O223        O  0.22361226  0.40751434  0.79030753    -0.79600
C224        C  0.07816270  0.26996190  0.70479427     0.95700
O225        O  0.09044270  0.31553360  0.78814778    -0.77600
O226        O  0.19744086  0.27744754  0.71994944    -0.82700
C227        C  0.22393680  0.30128444  0.79453644     0.98300
C228        C  0.23045055  0.30877963  0.70608206     1.04200
O229        O  0.24441142  0.33843076  0.78071241    -0.78400
C230        C  0.07776616  0.27549796  0.79343191     1.02500
C231        C  0.31871904  0.31770232  0.65242108     0.79800
N232        N  0.32497042  0.28555557  0.66518172    -0.78500
C233        C  0.29801793  0.25895432  0.68886583     0.82200
N234        N  0.26552264  0.26526677  0.70017989    -0.78500
C235        C  0.25993912  0.29812462  0.68846871     0.82300
N236        N  0.28676359  0.32454364  0.66466611    -0.80200
C237        C  0.31000767  0.30900363  0.84973312     0.79800
N238        N  0.27771684  0.31527482  0.83713822    -0.78500
C239        C  0.24992357  0.28793798  0.81418221     0.82200
N240        N  0.25534812  0.25494371  0.80301146    -0.78500
C241        C  0.28806186  0.24893703  0.81470304     0.82300
N242        N  0.31576259  0.27646026  0.83767644    -0.80200
C243        C  0.18863091  0.49706092  0.85099957     0.79800
N244        N  0.21962338  0.03642110  0.83797080    -0.78500
C245        C  0.24740605  0.03703914  0.81500045     0.82200
N246        N  0.24195681  0.49841512  0.80289019    -0.78500
C247        C  0.20927342  0.45958259  0.81416111     0.82300
N248        N  0.18222259  0.45901899  0.83781606    -0.80200
C249        C  0.18793361  0.50161956  0.64914301     0.79800
N250        N  0.21884148  0.03887948  0.66258252    -0.78500
C251        C  0.24303824  0.03882882  0.68834046     0.82200
N252        N  0.23632156  0.50050893  0.70003015    -0.78500
C253        C  0.20464155  0.46218388  0.68745102     0.82300
N254        N  0.17998643  0.46278550  0.66227700    -0.80200
C255        C  0.99719180  0.18068877  0.65220124     0.79800
N256        N  0.03641899  0.21288479  0.66402161    -0.78500
C257        C  0.03743387  0.24018821  0.68748308     0.82200
N258        N  0.99914330  0.23436546  0.69966388    -0.78500
C259        C  0.46001940  0.20135022  0.68911746     0.82300
N260        N  0.45914099  0.17425896  0.66562469    -0.80200
C261        C  0.50155964  0.19136933  0.85030830     0.79800
N262        N  0.46268915  0.18509684  0.83844660    -0.78500
C263        C  0.46180397  0.21165337  0.81497313     0.82200
N264        N  0.50006436  0.24383356  0.80247598    -0.78500
C265        C  0.03906647  0.24974950  0.81345222     0.82300
N266        N  0.03972008  0.22305307  0.83702838    -0.80200
Fe267      Fe  0.49804902  0.44338645  0.99910230     1.65800
Fe268      Fe  0.44236871  0.49951800  0.49856233     1.73200
Fe269      Fe  0.05467824  0.05495486  0.49980333     1.54400
O270        O  0.08369966  0.03340953  0.53305398    -0.82100
O271        O  0.46161299  0.04733722  0.96382694    -0.80400
O272        O  0.04389018  0.46327076  0.53608467    -0.84600
O273        O  0.04804790  0.46489416  0.96531902    -0.79500
O274        O  0.03498663  0.07765921  0.53829570    -0.81300
O275        O  0.41372665  0.45209091  0.96443382    -0.84000
C276        C  0.07628057  0.00265704  0.95274832     0.96800
C277        C  0.07535885  0.49955836  0.54569511     1.04200
O278        O  0.49906627  0.50028671  0.49853923    -1.13000
O279        O  0.41519537  0.45225002  0.53406879    -0.75400
O280        O  0.45075695  0.41501787  0.53215300    -0.78900
O281        O  0.08086919  0.03878469  0.96223031    -0.79600
C282        C  0.42117110  0.42148592  0.54367474     0.95700
O283        O  0.45360483  0.41927643  0.96126735    -0.77600
O284        O  0.46196613  0.04401163  0.53556310    -0.82700
C285        C  0.49808920  0.07854109  0.95422422     0.98300
C286        C  0.99832196  0.07122607  0.54861707     1.04200
O287        O  0.03456798  0.08580208  0.96598559    -0.78400
C288        C  0.42189483  0.42424346  0.95182194     1.02500
C289        C  0.46354064  0.13921400  0.89541476    -0.12700
C290        C  0.50154099  0.16234356  0.87645249     0.04300
C291        C  0.03811880  0.15705459  0.88304977    -0.08000
C292        C  0.03644506  0.13027245  0.90880672    -0.08700
C293        C  0.49849517  0.10741954  0.92788427    -0.03300
C294        C  0.46157048  0.11186566  0.92075299     0.03500
N295        N  0.42213368  0.08988344  0.93944212     0.66000
H296        H  0.43502513  0.14268671  0.89091620     0.14900
H297        H  0.06470340  0.12632745  0.91323583     0.14600
N298        N  0.07630477  0.17659764  0.86292485     0.73700
O299        O  0.41792726  0.10828285  0.96421511    -0.39700
O300        O  0.38869545  0.05736060  0.92750027    -0.39700
O301        O  0.11169601  0.20800374  0.87365429    -0.40400
O302        O  0.07693638  0.15722608  0.83747056    -0.40400
C303        C  0.03280010  0.14587194  0.62230131    -0.12700
C304        C  0.99619660  0.15129191  0.62631149     0.04300
C305        C  0.45963188  0.12856791  0.60545227    -0.08000
C306        C  0.46081182  0.10208483  0.58088931    -0.08700
C307        C  0.99777575  0.09737009  0.57642433    -0.03300
C308        C  0.03381848  0.11905976  0.59791261     0.03500
N309        N  0.07123882  0.11337842  0.59600640     0.66000
H310        H  0.06081889  0.16214989  0.63847804     0.14900
H311        H  0.43282105  0.08596084  0.56466819     0.14600
N312        N  0.42169881  0.13332108  0.60782466     0.73700
O313        O  0.10620321  0.14296885  0.58325467    -0.39700
O314        O  0.07221040  0.08380139  0.61275183    -0.39700
O315        O  0.41874513  0.16098125  0.59003105    -0.40400
O316        O  0.38791252  0.10415448  0.62211703    -0.40400
C317        C  0.14772596  0.53374050  0.57374336    -0.12700
C318        C  0.10370161  0.49994036  0.57247385     0.04300
C319        C  0.08788532  0.46716451  0.59671559    -0.08000
C320        C  0.11612788  0.46814294  0.62104007    -0.08700
C321        C  0.16011113  0.50171516  0.62223456    -0.03300
C322        C  0.17595640  0.53487580  0.59827417     0.03500
N323        N  0.22098669  0.56875073  0.59758540     0.66000
H324        H  0.16064965  0.55905331  0.55518988     0.14900
H325        H  0.10304807  0.44302480  0.63973863     0.14600
N326        N  0.04252094  0.43461620  0.59858898     0.73700
O327        O  0.24871798  0.56230544  0.58304171    -0.39700
O328        O  0.22779712  0.10702394  0.60755140    -0.39700
O329        O  0.03020313  0.39634334  0.58888505    -0.40400
O330        O  0.02009594  0.92706967  0.61712627    -0.40400
C331        C  0.16917758  0.03791022  0.89144839    -0.12700
C332        C  0.15925876  0.49704804  0.87707951     0.04300
C333        C  0.12081607  0.45869067  0.88741302    -0.08000
C334        C  0.09457868  0.46104160  0.91188356    -0.08700
C335        C  0.10456835  0.00229520  0.92613844    -0.03300
C336        C  0.14329098  0.04039051  0.91607657     0.03500
N337        N  0.15763323  0.08182664  0.93100846     0.66000
H338        H  0.19903417  0.06762588  0.88475590     0.14900
H339        H  0.06517239  0.43115671  0.91903876     0.14600
N340        N  0.10733307  0.41698710  0.87326584     0.73700
O341        O  0.18407366  0.09344103  0.95462593    -0.39700
O342        O  0.15119114  0.10985621  0.91670174    -0.39700
O343        O  0.11461560  0.38994464  0.88824454    -0.40400
O344        O  0.08063643  0.40404532  0.84977615    -0.40400
C345        C  0.40786905  0.37272205  0.90629275    -0.12700
C346        C  0.39328292  0.39595565  0.92517756     0.04300
C347        C  0.35139042  0.39072843  0.91851308    -0.08000
C348        C  0.32538962  0.36268438  0.89373270    -0.08700
C349        C  0.33975886  0.33906820  0.87513431    -0.03300
C350        C  0.38181162  0.34463967  0.88152326     0.03500
N351        N  0.39932732  0.32317114  0.86260393     0.66000
H352        H  0.44005810  0.37651064  0.91054696     0.14900
H353        H  0.29311640  0.35872746  0.88957137     0.14600
N354        N  0.33371271  0.41207967  0.93740197     0.73700
O355        O  0.42120339  0.34168384  0.83740331    -0.39700
O356        O  0.40067038  0.29078545  0.87442085    -0.39700
O357        O  0.33274022  0.44468586  0.92566006    -0.40400
O358        O  0.31041057  0.39269377  0.96183934    -0.40400
C359        C  0.41286542  0.37834762  0.59342661    -0.12700
C360        C  0.39371603  0.39293080  0.57028032     0.04300
C361        C  0.34943486  0.38167941  0.57393955    -0.08000
C362        C  0.32593831  0.35784287  0.60119330    -0.08700
C363        C  0.34559882  0.34442380  0.62489691    -0.03300
C364        C  0.38966931  0.35496481  0.62087013     0.03500
N365        N  0.41211169  0.34457342  0.64527243     0.66000
H366        H  0.44684789  0.38633442  0.59064268     0.14900
H367        H  0.29159172  0.34873177  0.60335880     0.14600
N368        N  0.32706928  0.39151118  0.54913729     0.73700
O369        O  0.42111740  0.31473537  0.64016675    -0.39700
O370        O  0.43054553  0.37071725  0.66849204    -0.39700
O371        O  0.30897941  0.36498029  0.52607631    -0.40400
O372        O  0.31798621  0.42141566  0.55360352    -0.40400
Fe373      Fe  0.35387721  0.62389798  0.25175312     1.65800
Fe374      Fe  0.27043116  0.64558604  0.25002746     1.73200
Fe375      Fe  0.37587005  0.72890966  0.25127967     1.54400
O376        O  0.40807106  0.72480158  0.29168909    -0.82100
O377        O  0.27711960  0.69671299  0.22116241    -0.80400
O378        O  0.40657870  0.66195052  0.28194473    -0.84600
O379        O  0.39258913  0.65236309  0.21122466    -0.79500
O380        O  0.33729530  0.74293928  0.28108012    -0.81300
O381        O  0.26164878  0.60807460  0.20903218    -0.84000
C382        C  0.42182503  0.69229399  0.20772493     0.96800
C383        C  0.42235991  0.69860565  0.29618122     1.04200
O384        O  0.33340755  0.66615352  0.25141917    -1.13000
O385        O  0.25498926  0.59236899  0.27989535    -0.75400
O386        O  0.31645925  0.59124695  0.29176847    -0.78900
O387        O  0.42057899  0.72310580  0.22244842    -0.79600
C388        C  0.27565028  0.57694214  0.29532584     0.95700
O389        O  0.30376336  0.57970839  0.22224330    -0.77600
O390        O  0.27369298  0.68146482  0.29032776    -0.82700
C391        C  0.30842767  0.72925288  0.20687417     0.98300
C392        C  0.30043798  0.72174645  0.29533823     1.04200
O393        O  0.34823340  0.73924864  0.21023922    -0.78400
C394        C  0.27221907  0.57867855  0.20639958     1.02500
Fe395      Fe  0.12495540  0.85402624  0.24963296     1.65800
Fe396      Fe  0.14688622  0.77082915  0.25041366     1.73200
Fe397      Fe  0.23024685  0.87608056  0.25191078     1.54400
O398        O  0.22464737  0.92093349  0.22248904    -0.82100
O399        O  0.18294931  0.77396916  0.29088494    -0.80400
O400        O  0.15416327  0.89232890  0.20890959    -0.84600
O401        O  0.16227135  0.90656884  0.27985139    -0.79500
O402        O  0.24155870  0.84877081  0.21140827    -0.81300
O403        O  0.09393203  0.75612485  0.28015033    -0.84000
C404        C  0.19800098  0.92147404  0.29566244     0.96800
C405        C  0.19418315  0.92206893  0.20657052     1.04200
O406        O  0.16737179  0.83357470  0.25096610    -1.13000
O407        O  0.10891088  0.76108207  0.20926842    -0.75400
O408        O  0.08073618  0.80361164  0.22043002    -0.78900
O409        O  0.22454914  0.90735173  0.29213024    -0.79600
C410        C  0.07933171  0.77138865  0.20587650     0.95700
O411        O  0.09202445  0.81741664  0.28967553    -0.77600
O412        O  0.19795765  0.77763393  0.22174601    -0.82700
C413        C  0.22338323  0.80038870  0.29597945     0.98300
C414        C  0.23080558  0.80893453  0.20770182     1.04200
O415        O  0.24448570  0.83752991  0.28212248    -0.78400
C416        C  0.07832766  0.77710240  0.29450682     1.02500
C417        C  0.31883694  0.81869719  0.15360333     0.79800
N418        N  0.32517426  0.78637168  0.16586047    -0.78500
C419        C  0.29826499  0.75932817  0.18938380     0.82200
N420        N  0.26578278  0.76540709  0.20106881    -0.78500
C421        C  0.26015568  0.79843107  0.18982362     0.82300
N422        N  0.28688652  0.82524338  0.16617012    -0.80200
C423        C  0.30717466  0.80481348  0.35211494     0.79800
N424        N  0.27551554  0.81191623  0.33932072    -0.78500
C425        C  0.24868534  0.78596893  0.31540893     0.82200
N426        N  0.25457485  0.75363601  0.30338507    -0.78500
C427        C  0.28679540  0.74692255  0.31519533     0.82300
N428        N  0.31357058  0.77312292  0.33911734    -0.80200
C429        C  0.18932520  0.99831575  0.35082192     0.79800
N430        N  0.22162501  0.53747679  0.33767213    -0.78500
C431        C  0.24943738  0.53770787  0.31488299     0.82200
N432        N  0.24391102  0.99893916  0.30410827    -0.78500
C433        C  0.21093915  0.96027553  0.31537281     0.82300
N434        N  0.18327887  0.96008083  0.33833723    -0.80200
C435        C  0.18785241  0.00105783  0.15006063     0.79800
N436        N  0.21880283  0.53869074  0.16276969    -0.78500
C437        C  0.24394507  0.53881738  0.18794035     0.82200
N438        N  0.23746414  0.00067053  0.20041858    -0.78500
C439        C  0.20562444  0.96216880  0.18822823     0.82300
N440        N  0.18033935  0.96240020  0.16331324    -0.80200
C441        C  0.99912879  0.68372688  0.15187879     0.79800
N442        N  0.03819689  0.71546912  0.16424998    -0.78500
C443        C  0.03887208  0.74203237  0.18818981     0.82200
N444        N  0.00044214  0.73594843  0.20026922    -0.78500
C445        C  0.46144896  0.70333023  0.18916970     0.82300
N446        N  0.46088134  0.67694494  0.16521908    -0.80200
C447        C  0.50193982  0.69413431  0.35179157     0.79800
N448        N  0.46307314  0.68707055  0.33926671    -0.78500
C449        C  0.46221361  0.71292135  0.31519615     0.82200
N450        N  0.50048295  0.74508774  0.30271840    -0.78500
C451        C  0.03946466  0.75180511  0.31438674     0.82300
N452        N  0.04007560  0.72587418  0.33856012    -0.80200
Fe453      Fe  0.49905736  0.94324820  0.49818267     1.65800
Fe454      Fe  0.44211845  0.00064283  0.99958039     1.73200
Fe455      Fe  0.05465715  0.55512536  0.99985293     1.54400
O456        O  0.08299088  0.53366218  0.03379395    -0.82100
O457        O  0.46139632  0.54647004  0.46297876    -0.80400
O458        O  0.04241687  0.96274312  0.03732741    -0.84600
O459        O  0.04859401  0.96570914  0.46407249    -0.79500
O460        O  0.03587258  0.57956818  0.03778948    -0.81300
O461        O  0.41514518  0.95224766  0.46239984    -0.84000
C462        C  0.07738712  0.50342642  0.45178213     0.96800
C463        C  0.07416928  0.99890454  0.04693990     1.04200
O464        O  0.49849898  0.00073054  0.99956152    -1.13000
O465        O  0.41460891  0.95373154  0.03525366    -0.75400
O466        O  0.44918897  0.91557863  0.03291284    -0.78900
O467        O  0.08160263  0.53943251  0.46124683    -0.79600
C468        C  0.42011523  0.92262567  0.04468283     0.95700
O469        O  0.45440379  0.91864118  0.46070939    -0.77600
O470        O  0.46291225  0.54635260  0.03568388    -0.82700
C471        C  0.49774948  0.57822588  0.45374084     0.98300
C472        C  0.99953354  0.57384125  0.04821423     1.04200
O473        O  0.03417314  0.58555378  0.46551936    -0.78400
C474        C  0.42341137  0.92412557  0.45039660     1.02500
C475        C  0.46246361  0.63783432  0.39430405    -0.12700
C476        C  0.50200680  0.66511864  0.37797140     0.04300
C477        C  0.04007436  0.66355799  0.38700278    -0.08000
C478        C  0.03780282  0.63538840  0.41185097    -0.08700
C479        C  0.49818659  0.60795516  0.42801890    -0.03300
C480        C  0.46014420  0.60948916  0.41898737     0.03500
N481        N  0.41899312  0.58332475  0.43495131     0.66000
H482        H  0.43282613  0.63858667  0.38817588     0.14900
H483        H  0.06735858  0.63449213  0.41803950     0.14600
N484        N  0.08104616  0.68908539  0.37066565     0.73700
O485        O  0.41037823  0.59770269  0.46015873    -0.39700
O486        O  0.38827585  0.55140964  0.42013954    -0.39700
O487        O  0.11180544  0.72197818  0.38460485    -0.40400
O488        O  0.08922707  0.67398841  0.34565345    -0.40400
C489        C  0.03485059  0.64930149  0.12152553    -0.12700
C490        C  0.99840640  0.65499488  0.12554562     0.04300
C491        C  0.46204312  0.63290018  0.10439995    -0.08000
C492        C  0.46302992  0.60632655  0.07982801    -0.08700
C493        C  0.99963604  0.60095242  0.07557952    -0.03300
C494        C  0.03571163  0.62246546  0.09706525     0.03500
N495        N  0.07289553  0.61639778  0.09518368     0.66000
H496        H  0.06277875  0.66524264  0.13781738     0.14900
H497        H  0.43510109  0.59048313  0.06352444     0.14600
N498        N  0.42448878  0.63831445  0.10657848     0.73700
O499        O  0.10763890  0.64530819  0.08173416    -0.39700
O500        O  0.07400441  0.58730244  0.11246052    -0.39700
O501        O  0.42200171  0.66606447  0.08857503    -0.40400
O502        O  0.39055369  0.60969551  0.12105633    -0.40400
C503        C  0.14655781  0.03316405  0.07510053    -0.12700
C504        C  0.10264831  0.99909903  0.07369514     0.04300
C505        C  0.08723214  0.96602964  0.09774866    -0.08000
C506        C  0.11575313  0.96702495  0.12193760    -0.08700
C507        C  0.15961533  0.00092266  0.12324914    -0.03300
C508        C  0.17500357  0.03435203  0.09949466     0.03500
N509        N  0.21983214  0.06869805  0.09889248     0.66000
H510        H  0.15926262  0.05875304  0.05675732     0.14900
H511        H  0.10296244  0.94167556  0.14046683     0.14600
N512        N  0.04196875  0.93322202  0.09969002     0.73700
O513        O  0.24782045  0.06310740  0.08389695    -0.39700
O514        O  0.23169859  0.60398572  0.10450108    -0.39700
O515        O  0.02979782  0.89524796  0.08936777    -0.40400
O516        O  0.01646471  0.44174582  0.11755665    -0.40400
C517        C  0.17278859  0.53836680  0.39297584    -0.12700
C518        C  0.15935611  0.99869069  0.37607983     0.04300
C519        C  0.11876535  0.96122928  0.38406341    -0.08000
C520        C  0.09258207  0.96343864  0.40858630    -0.08700
C521        C  0.10593592  0.50339462  0.42532955    -0.03300
C522        C  0.14672045  0.54062538  0.41758170     0.03500
N523        N  0.16312670  0.58058279  0.43518096     0.66000
H524        H  0.20431341  0.56719149  0.38805586     0.14900
H525        H  0.06158210  0.93425648  0.41409782     0.14600
N526        N  0.10276688  0.92089201  0.36705620     0.73700
O527        O  0.18664531  0.58683647  0.46004825    -0.39700
O528        O  0.16173300  0.61244499  0.42237706    -0.39700
O529        O  0.10366864  0.88923235  0.38069500    -0.40400
O530        O  0.08005992  0.91421841  0.34166317    -0.40400
C531        C  0.39239442  0.85440303  0.41981186    -0.12700
C532        C  0.39485812  0.89502051  0.42419745     0.04300
C533        C  0.36861945  0.90573699  0.40444918    -0.08000
C534        C  0.34035653  0.87581529  0.38142641    -0.08700
C535        C  0.33749467  0.83495006  0.37724519    -0.03300
C536        C  0.36415772  0.82446242  0.39678447     0.03500
N537        N  0.36201435  0.78305397  0.39453871     0.66000
H538        H  0.41180314  0.84515108  0.43494334     0.14900
H539        H  0.32092295  0.88514211  0.36640882     0.14600
N540        N  0.37107570  0.94728781  0.40669207     0.73700
O541        O  0.39093663  0.78004271  0.37861525    -0.39700
O542        O  0.33759806  0.75262382  0.41379392    -0.39700
O543        O  0.39668303  0.97807670  0.38813674    -0.40400
O544        O  0.34172172  0.95036193  0.42194088    -0.40400
C545        C  0.41238871  0.87995191  0.09444562    -0.12700
C546        C  0.39295008  0.89441933  0.07147542     0.04300
C547        C  0.34876354  0.88332567  0.07549184    -0.08000
C548        C  0.32554535  0.85931202  0.10276044    -0.08700
C549        C  0.34547816  0.84583861  0.12619998    -0.03300
C550        C  0.38958351  0.85665976  0.12199444     0.03500
N551        N  0.41243525  0.84675447  0.14636923     0.66000
H552        H  0.44647662  0.88805061  0.09142651     0.14900
H553        H  0.29116527  0.85013263  0.10516322     0.14600
N554        N  0.32623768  0.89355980  0.05107521     0.73700
O555        O  0.42271336  0.81787041  0.14102495    -0.39700
O556        O  0.43003895  0.87268505  0.16982916    -0.39700
O557        O  0.30657549  0.86662504  0.02850700    -0.40400
O558        O  0.31838158  0.92427092  0.05570252    -0.40400
Fe559      Fe  0.35294974  0.62318785  0.75257636     1.65800
Fe560      Fe  0.27003620  0.64577194  0.75102610     1.73200
Fe561      Fe  0.37574125  0.72843040  0.75162788     1.54400
O562        O  0.40795671  0.72439134  0.79205650    -0.82100
O563        O  0.27704361  0.69703752  0.72212889    -0.80400
O564        O  0.40578310  0.66108148  0.78283970    -0.84600
O565        O  0.39183466  0.65119339  0.71197715    -0.79500
O566        O  0.33763378  0.74313950  0.78132311    -0.81300
O567        O  0.26076966  0.60814802  0.71004775    -0.84000
C568        C  0.42106013  0.69106154  0.70815273     0.96800
C569        C  0.42189751  0.69795911  0.79683391     1.04200
O570        O  0.33292890  0.66579550  0.75215576    -1.13000
O571        O  0.25408452  0.59229832  0.78085393    -0.75400
O572        O  0.31531675  0.59068457  0.79259222    -0.78900
O573        O  0.42003743  0.72204912  0.72276764    -0.79600
C574        C  0.27450659  0.57645596  0.79609892     0.95700
O575        O  0.30268369  0.57940265  0.72297269    -0.77600
O576        O  0.27400399  0.68200641  0.79129145    -0.82700
C577        C  0.30837632  0.72912827  0.70747407     0.98300
C578        C  0.30093768  0.72236571  0.79583818     1.04200
O579        O  0.34805737  0.73859422  0.71055112    -0.78400
C580        C  0.27129485  0.57874883  0.70714846     1.02500
Fe581      Fe  0.12405840  0.85306744  0.74923057     1.65800
Fe582      Fe  0.14675397  0.77024378  0.75012890     1.73200
Fe583      Fe  0.22970636  0.87599301  0.75181804     1.54400
O584        O  0.22400049  0.92041230  0.72220998    -0.82100
O585        O  0.18351659  0.77362101  0.79027833    -0.80400
O586        O  0.15348693  0.89187302  0.70867787    -0.84600
O587        O  0.16071133  0.90558370  0.77958687    -0.79500
O588        O  0.24190358  0.84883917  0.71154086    -0.81300
O589        O  0.09405437  0.75516647  0.78038586    -0.84000
C590        C  0.19653590  0.92105521  0.79530963     0.96800
C591        C  0.19356403  0.92156777  0.70633922     1.04200
O592        O  0.16684455  0.83300727  0.75065413    -1.13000
O593        O  0.10796585  0.75973847  0.70926159    -0.75400
O594        O  0.08017684  0.80274395  0.71985835    -0.78900
O595        O  0.22347404  0.90739034  0.79181971    -0.79600
C596        C  0.07855564  0.77024026  0.70562036     0.95700
O597        O  0.09097653  0.81602088  0.78914507    -0.77600
O598        O  0.19768216  0.77752808  0.72101881    -0.82700
C599        C  0.22368143  0.80072072  0.79576461     0.98300
C600        C  0.23090773  0.80899271  0.70741377     1.04200
O601        O  0.24424801  0.83810708  0.78227637    -0.78400
C602        C  0.07798942  0.77592481  0.79447620     1.02500
C603        C  0.31937268  0.81840983  0.65370693     0.79800
N604        N  0.32553677  0.78611177  0.66625242    -0.78500
C605        C  0.29848173  0.75928320  0.68979918     0.82200
N606        N  0.26598103  0.76551859  0.70121016    -0.78500
C607        C  0.26047530  0.79851354  0.68971692     0.82300
N608        N  0.28738778  0.82515714  0.66602462    -0.80200
C609        C  0.30969349  0.80793727  0.85077256     0.79800
N610        N  0.27735935  0.81420977  0.83826512    -0.78500
C611        C  0.24953582  0.78705429  0.81526457     0.82200
N612        N  0.25499522  0.75418037  0.80384494    -0.78500
C613        C  0.28777086  0.74815917  0.81538898     0.82300
N614        N  0.31547260  0.77556347  0.83840134    -0.80200
C615        C  0.18723618  0.99783553  0.85032669     0.79800
N616        N  0.22089908  0.53579557  0.83867893    -0.78500
C617        C  0.24805661  0.53660257  0.81506676     0.82200
N618        N  0.24184108  0.99873826  0.80347324    -0.78500
C619        C  0.20907394  0.95998470  0.81483211     0.82300
N620        N  0.18139239  0.95964502  0.83786986    -0.80200
C621        C  0.18870658  0.00031100  0.64882555     0.79800
N622        N  0.21869340  0.53992294  0.66285415    -0.78500
C623        C  0.24323226  0.53936059  0.68819895     0.82200
N624        N  0.23636490  0.00025562  0.70059272    -0.78500
C625        C  0.20525637  0.96168252  0.68800564     0.82300
N626        N  0.18102029  0.96175633  0.66235867    -0.80200
C627        C  0.99798489  0.68285074  0.65150428     0.79800
N628        N  0.03713124  0.71451842  0.66385614    -0.78500
C629        C  0.03796177  0.74083046  0.68804301     0.82200
N630        N  0.99960206  0.73455476  0.70039346    -0.78500
C631        C  0.46050652  0.70197753  0.68935607     0.82300
N632        N  0.45975421  0.67582438  0.66511538    -0.80200
C633        C  0.50159121  0.69455758  0.85315430     0.79800
N634        N  0.46271839  0.68739210  0.84050422    -0.78500
C635        C  0.46188725  0.71240422  0.81576786     0.82200
N636        N  0.50015676  0.74388002  0.80282319    -0.78500
C637        C  0.03915473  0.75062057  0.81450273     0.82300
N638        N  0.03978292  0.72535368  0.83924643    -0.80200
Fe639      Fe  0.49861207  0.94495111  0.99919676     1.65800
Fe640      Fe  0.44187519  0.99828336  0.49887411     1.73200
Fe641      Fe  0.05515642  0.55656575  0.49906856     1.54400
O642        O  0.08409152  0.53578395  0.53292851    -0.82100
O643        O  0.46125760  0.54575053  0.96381955    -0.80400
O644        O  0.04330791  0.96097150  0.53585963    -0.84600
O645        O  0.04817865  0.96635750  0.96522357    -0.79500
O646        O  0.03547482  0.58011663  0.53699259    -0.81300
O647        O  0.41473051  0.95391116  0.96362511    -0.84000
C648        C  0.07636546  0.50119906  0.95292863     0.96800
C649        C  0.07513104  0.99701678  0.54543177     1.04200
O650        O  0.49847238  0.99881683  0.49886538    -1.13000
O651        O  0.41436136  0.95055067  0.53399098    -0.75400
O652        O  0.45008594  0.91346109  0.53231327    -0.78900
O653        O  0.08059417  0.53731223  0.96209996    -0.79600
C654        C  0.42047173  0.91994610  0.54377053     0.95700
O655        O  0.45446464  0.92093488  0.96132883    -0.77600
O656        O  0.46243564  0.54594513  0.53481496    -0.82700
C657        C  0.49765368  0.57709997  0.95416892     0.98300
C658        C  0.99888668  0.57373213  0.54742200     1.04200
O659        O  0.03407453  0.58442354  0.96606141    -0.78400
C660        C  0.42326141  0.92622353  0.95116678     1.02500
C661        C  0.46208462  0.62683868  0.88644364    -0.12700
C662        C  0.50153583  0.66554700  0.87947162     0.04300
C663        C  0.03960357  0.67485628  0.89746391    -0.08000
C664        C  0.03745446  0.64562812  0.92146854    -0.08700
C665        C  0.49799614  0.60679568  0.92828967    -0.03300
C666        C  0.45992783  0.59763405  0.91036162     0.03500
N667        N  0.41888641  0.55838355  0.91537930     0.66000
H668        H  0.43238224  0.61850795  0.87293547     0.14900
H669        H  0.06710371  0.65375817  0.93498782     0.14600
N670        N  0.08059747  0.71408687  0.89225877     0.73700
O671        O  0.39062047  0.55900324  0.93376850    -0.39700
O672        O  0.40748007  0.52657430  0.89637677    -0.39700
O673        O  0.09175208  0.74638103  0.91071355    -0.40400
O674        O  0.10899878  0.71323692  0.87416205    -0.40400
C675        C  0.03367693  0.64859958  0.62099567    -0.12700
C676        C  0.99727537  0.65435884  0.62497403     0.04300
C677        C  0.46106600  0.63254927  0.60363968    -0.08000
C678        C  0.46209215  0.60598295  0.57903986    -0.08700
C679        C  0.99864920  0.60051107  0.57490172    -0.03300
C680        C  0.03463292  0.62191327  0.59647854     0.03500
N681        N  0.07187684  0.61593883  0.59459370     0.66000
H682        H  0.06151669  0.66436650  0.63738256     0.14900
H683        H  0.43432575  0.59034107  0.56257391     0.14600
N684        N  0.42376129  0.63839772  0.60558883     0.73700
O685        O  0.10702304  0.64548256  0.58201918    -0.39700
O686        O  0.07243022  0.58593979  0.61106036    -0.39700
O687        O  0.42231425  0.66716596  0.58813009    -0.40400
O688        O  0.38911003  0.60930645  0.61902982    -0.40400
C689        C  0.14723926  0.03242179  0.57401337    -0.12700
C690        C  0.10405537  0.99701024  0.57170830     0.04300
C691        C  0.08963835  0.96267625  0.59467548    -0.08000
C692        C  0.11809294  0.96432831  0.61907062    -0.08700
C693        C  0.16103810  0.99973076  0.62149984    -0.03300
C694        C  0.17576164  0.03398668  0.59847876     0.03500
N695        N  0.21998356  0.06963939  0.59871425     0.66000
H696        H  0.15930554  0.05888214  0.55639027     0.14900
H697        H  0.10583596  0.93804751  0.63685764     0.14600
N698        N  0.04531211  0.92744903  0.59530463     0.73700
O699        O  0.24939328  0.06583340  0.58419758    -0.39700
O700        O  0.23119659  0.60715836  0.60554487    -0.39700
O701        O  0.03560728  0.89230219  0.58088410    -0.40400
O702        O  0.01781475  0.44106671  0.61703492    -0.40400
C703        C  0.17011612  0.53686422  0.89217586    -0.12700
C704        C  0.15757642  0.99816209  0.87594794     0.04300
C705        C  0.11834453  0.96018289  0.88559933    -0.08000
C706        C  0.09269406  0.96259394  0.91050398    -0.08700
C707        C  0.10541119  0.50088972  0.92683693    -0.03300
C708        C  0.14400296  0.53914519  0.91675107     0.03500
N709        N  0.15819624  0.58048490  0.93180342     0.66000
H710        H  0.19960192  0.56679086  0.88524178     0.14900
H711        H  0.06278771  0.93297877  0.91731504     0.14600
N712        N  0.10313031  0.91904495  0.86994092     0.73700
O713        O  0.18348014  0.59139587  0.95610028    -0.39700
O714        O  0.15310483  0.60911478  0.91708967    -0.39700
O715        O  0.10673244  0.88928169  0.88427207    -0.40400
O716        O  0.07832358  0.90955192  0.84545122    -0.40400
C717        C  0.40109700  0.86320462  0.91395744    -0.12700
C718        C  0.39524654  0.89781458  0.92429857     0.04300
C719        C  0.36202415  0.90331072  0.90932929    -0.08000
C720        C  0.33501191  0.87384088  0.88558663    -0.08700
C721        C  0.34022219  0.83862983  0.87572364    -0.03300
C722        C  0.37438677  0.83397965  0.88999333     0.03500
N723        N  0.38263289  0.79980918  0.88075994     0.66000
H724        H  0.42648285  0.85824289  0.92474351     0.14900
H725        H  0.30969641  0.87891113  0.87481629     0.14600
N726        N  0.35548866  0.93895031  0.91736205     0.73700
O727        O  0.41092119  0.80717958  0.85920745    -0.39700
O728        O  0.36895712  0.76625566  0.89854090    -0.39700
O729        O  0.37206310  0.97259271  0.89948307    -0.40400
O730        O  0.32581640  0.93294003  0.93728286    -0.40400
C731        C  0.41306077  0.87845882  0.59422326    -0.12700
C732        C  0.39329712  0.89187283  0.57067338     0.04300
C733        C  0.34900935  0.88046437  0.57441200    -0.08000
C734        C  0.32586260  0.85736365  0.60202798    -0.08700
C735        C  0.34602905  0.84495841  0.62604985    -0.03300
C736        C  0.39018888  0.85588971  0.62206686     0.03500
N737        N  0.41318836  0.84688231  0.64689232     0.66000
H738        H  0.44665789  0.88669384  0.59145685     0.14900
H739        H  0.29161463  0.84803084  0.60421200     0.14600
N740        N  0.32622177  0.88938547  0.54939727     0.73700
O741        O  0.42266898  0.81721552  0.64262454    -0.39700
O742        O  0.43173087  0.87412979  0.66947311    -0.39700
O743        O  0.30728442  0.86175893  0.52710444    -0.40400
O744        O  0.31758815  0.91972759  0.55311060    -0.40400
Fe745      Fe  0.85383161  0.12372520  0.25253650     1.65800
Fe746      Fe  0.77035544  0.14543805  0.25140223     1.73200
Fe747      Fe  0.87578333  0.22870864  0.25221489     1.54400
O748        O  0.90826458  0.22461579  0.29252892    -0.82100
O749        O  0.77677270  0.19638439  0.22255072    -0.80400
O750        O  0.90650931  0.16161486  0.28279581    -0.84600
O751        O  0.89243808  0.15227105  0.21197436    -0.79500
O752        O  0.83736484  0.24283968  0.28209690    -0.81300
O753        O  0.76124232  0.10800470  0.21035864    -0.84000
C754        C  0.92159145  0.19220753  0.20843863     0.96800
C755        C  0.92235792  0.19824630  0.29708363     1.04200
O756        O  0.83334302  0.16596703  0.25246880    -1.13000
O757        O  0.75512093  0.09227023  0.28119439    -0.75400
O758        O  0.81656982  0.09086513  0.29253081    -0.78900
O759        O  0.92036080  0.22296704  0.22323438    -0.79600
C760        C  0.77583159  0.07667672  0.29632673     0.95700
O761        O  0.80370494  0.07980042  0.22294395    -0.77600
O762        O  0.77395402  0.18135223  0.29174482    -0.82700
C763        C  0.80792644  0.22865740  0.20794819     0.98300
C764        C  0.80062427  0.22170183  0.29651164     1.04200
O765        O  0.84779352  0.23880446  0.21124586    -0.78400
C766        C  0.77206219  0.07885595  0.20730240     1.02500
Fe767      Fe  0.62469450  0.35360551  0.25035193     1.65800
Fe768      Fe  0.64679492  0.27048143  0.25105597     1.73200
Fe769      Fe  0.73021041  0.37587715  0.25214379     1.54400
O770        O  0.72447533  0.42041806  0.22250577    -0.82100
O771        O  0.68330352  0.27386949  0.29130558    -0.80400
O772        O  0.65377800  0.39218532  0.20966548    -0.84600
O773        O  0.66195822  0.40608030  0.28053508    -0.79500
O774        O  0.74146728  0.34823053  0.21174232    -0.81300
O775        O  0.59411301  0.25567500  0.28112547    -0.84000
C776        C  0.69806459  0.42157459  0.29589168     0.96800
C777        C  0.69386180  0.42167302  0.20691582     1.04200
O778        O  0.66725190  0.33327507  0.25148958    -1.13000
O779        O  0.60834171  0.26042216  0.21013652    -0.75400
O780        O  0.58054403  0.30334416  0.22109995    -0.78900
O781        O  0.72485910  0.40777881  0.29215021    -0.79600
C782        C  0.57898180  0.27101132  0.20662914     0.95700
O783        O  0.59171440  0.31674543  0.29040184    -0.77600
O784        O  0.69751764  0.27716047  0.22206908    -0.82700
C785        C  0.72367555  0.30049359  0.29644424     0.98300
C786        C  0.73041230  0.30832264  0.20796977     1.04200
O787        O  0.74462861  0.33765589  0.28259183    -0.78400
C788        C  0.57831139  0.27650315  0.29542164     1.02500
C789        C  0.81759041  0.31661964  0.15341977     0.79800
N790        N  0.82398653  0.28454852  0.16610482    -0.78500
C791        C  0.79748572  0.25822346  0.19005951     0.82200
N792        N  0.76524022  0.26467005  0.20171505    -0.78500
C793        C  0.75950689  0.29744816  0.19006695     0.82300
N794        N  0.78592371  0.32364738  0.16600749    -0.80200
C795        C  0.80726516  0.30503562  0.35291297     0.79800
N796        N  0.77579293  0.31225946  0.33989804    -0.78500
C797        C  0.74905775  0.28625578  0.31597002     0.82200
N798        N  0.75489213  0.25379294  0.30415281    -0.78500
C799        C  0.78696068  0.24699712  0.31618338     0.82300
N800        N  0.81363487  0.27323076  0.34012209    -0.80200
C801        C  0.68914646  0.49907193  0.35013784     0.79800
N802        N  0.72191911  0.03682751  0.33860569    -0.78500
C803        C  0.74968775  0.03728203  0.31569109     0.82200
N804        N  0.74382276  0.49922798  0.30370449    -0.78500
C805        C  0.71099550  0.46066092  0.31526930     0.82300
N806        N  0.68328386  0.46070258  0.33808734    -0.80200
C807        C  0.68770666  0.50004940  0.14967654     0.79800
N808        N  0.71883402  0.03953091  0.16346202    -0.78500
C809        C  0.74397589  0.03933189  0.18851155     0.82200
N810        N  0.73731579  0.50027462  0.20023795    -0.78500
C811        C  0.70532946  0.46161463  0.18832825     0.82300
N812        N  0.68004401  0.46156113  0.16332088    -0.80200
C813        C  0.49880637  0.18413359  0.15216247     0.79800
N814        N  0.53787009  0.21565305  0.16468660    -0.78500
C815        C  0.53855284  0.24189693  0.18886339     0.82200
N816        N  0.50014344  0.23573261  0.20102305    -0.78500
C817        C  0.96116981  0.20334469  0.18980720     0.82300
N818        N  0.96058175  0.17725336  0.16560911    -0.80200
C819        C  0.00171800  0.19316520  0.35264142     0.79800
N820        N  0.96287089  0.18630001  0.34020631    -0.78500
C821        C  0.96213731  0.21233728  0.31619610     0.82200
N822        N  0.00047311  0.24450305  0.30379222    -0.78500
C823        C  0.53942865  0.25103272  0.31535077     0.82300
N824        N  0.53995486  0.22489800  0.33943406    -0.80200
Fe825      Fe  0.99986550  0.44482038  0.49818887     1.65800
Fe826      Fe  0.94187648  0.49935338  0.99991034     1.73200
Fe827      Fe  0.55495059  0.05659080  0.99993318     1.54400
O828        O  0.58327166  0.03521665  0.03404140    -0.82100
O829        O  0.96118557  0.04592081  0.46375815    -0.80400
O830        O  0.54185105  0.46120156  0.03731360    -0.84600
O831        O  0.54943321  0.46694211  0.46410434    -0.79500
O832        O  0.53581589  0.08086842  0.03770766    -0.81300
O833        O  0.91557079  0.45290060  0.46248637    -0.84000
C834        C  0.57662328  0.00231014  0.45191074     0.96800
C835        C  0.57379125  0.49737827  0.04674073     1.04200
O836        O  0.99813877  0.49927074  0.99956937    -1.13000
O837        O  0.91474822  0.45281209  0.03588462    -0.75400
O838        O  0.94852156  0.41393602  0.03280067    -0.78900
O839        O  0.58083769  0.03826704  0.46153508    -0.79600
C840        C  0.91983029  0.42129312  0.04492743     0.95700
O841        O  0.95531810  0.41977923  0.46067010    -0.77600
O842        O  0.96283283  0.04731060  0.03572714    -0.82700
C843        C  0.99766295  0.07788373  0.45494445     0.98300
C844        C  0.49938967  0.07490264  0.04814467     1.04200
O845        O  0.53397003  0.08495896  0.46679799    -0.78400
C846        C  0.92405953  0.42492683  0.45049212     1.02500
C847        C  0.96377943  0.14105826  0.39795554    -0.12700
C848        C  0.00172832  0.16426292  0.37892311     0.04300
C849        C  0.53838542  0.15908315  0.38549040    -0.08000
C850        C  0.53644417  0.13147088  0.41069213    -0.08700
C851        C  0.99833310  0.10791982  0.42943152    -0.03300
C852        C  0.96170156  0.11309710  0.42292342     0.03500
N853        N  0.92255917  0.09130573  0.44194920     0.66000
H854        H  0.93542200  0.14488694  0.39373311     0.14900
H855        H  0.56470022  0.12746243  0.41493329     0.14600
N856        N  0.57701928  0.17962494  0.36586432     0.73700
O857        O  0.91934068  0.10929123  0.46734377    -0.39700
O858        O  0.88859483  0.05929454  0.43006758    -0.39700
O859        O  0.61197090  0.21092221  0.37725612    -0.40400
O860        O  0.57848388  0.16127594  0.34009219    -0.40400
C861        C  0.53464865  0.15013108  0.12151736    -0.12700
C862        C  0.49815595  0.15571538  0.12563131     0.04300
C863        C  0.96187867  0.13381012  0.10447814    -0.08000
C864        C  0.96287400  0.10731010  0.07985375    -0.08700
C865        C  0.49943274  0.10191387  0.07553200    -0.03300
C866        C  0.53555568  0.12345178  0.09697316     0.03500
N867        N  0.57287354  0.11761535  0.09493036     0.66000
H868        H  0.56258281  0.16601917  0.13780926     0.14900
H869        H  0.93495167  0.09149231  0.06354057     0.14600
N870        N  0.92437320  0.13929992  0.10666892     0.73700
O871        O  0.60768691  0.14691922  0.08181007    -0.39700
O872        O  0.57391330  0.08809477  0.11170211    -0.39700
O873        O  0.92224419  0.16753953  0.08901522    -0.40400
O874        O  0.89019057  0.11039628  0.12072458    -0.40400
C875        C  0.64666100  0.53084539  0.07402631    -0.12700
C876        C  0.60234083  0.49766044  0.07341398     0.04300
C877        C  0.58658615  0.46545144  0.09809312    -0.08000
C878        C  0.61516107  0.46647288  0.12225005    -0.08700
C879        C  0.65940800  0.49959078  0.12283656    -0.03300
C880        C  0.67518469  0.53203960  0.09834144     0.03500
N881        N  0.72045319  0.56520268  0.09687438     0.66000
H882        H  0.65959331  0.55564489  0.05510031     0.14900
H883        H  0.60218001  0.44186956  0.14131478     0.14600
N884        N  0.54107500  0.43346704  0.10049520     0.73700
O885        O  0.74723526  0.55767720  0.08199873    -0.39700
O886        O  0.72965140  0.10672116  0.10739100    -0.39700
O887        O  0.52827138  0.39440729  0.09261725    -0.40400
O888        O  0.51745157  0.93912319  0.11889647    -0.40400
C889        C  0.67191601  0.03779748  0.39287947    -0.12700
C890        C  0.65933084  0.49963819  0.37541736     0.04300
C891        C  0.61809743  0.46264185  0.38276926    -0.08000
C892        C  0.59223181  0.46480834  0.40758765    -0.08700
C893        C  0.60536865  0.00241875  0.42554976    -0.03300
C894        C  0.64559454  0.04003914  0.41728684     0.03500
N895        N  0.66121151  0.08044066  0.43414684     0.66000
H896        H  0.70294690  0.06700245  0.38752173     0.14900
H897        H  0.56071165  0.43602466  0.41264123     0.14600
N898        N  0.60103257  0.42302669  0.36464039     0.73700
O899        O  0.68452576  0.08779523  0.45928544    -0.39700
O900        O  0.65934216  0.11159333  0.42051512    -0.39700
O901        O  0.60032070  0.39001791  0.37728424    -0.40400
O902        O  0.57903944  0.41847254  0.33917644    -0.40400
C903        C  0.89158170  0.35424573  0.42113594    -0.12700
C904        C  0.89538998  0.39558237  0.42449425     0.04300
C905        C  0.87023663  0.40682205  0.40399254    -0.08000
C906        C  0.84175371  0.37677288  0.38114882    -0.08700
C907        C  0.83756887  0.33522601  0.37796619    -0.03300
C908        C  0.86301983  0.32411283  0.39834314     0.03500
N909        N  0.85909176  0.28184313  0.39728456     0.66000
H910        H  0.91006460  0.34460032  0.43695504     0.14900
H911        H  0.82323059  0.38651148  0.36546959     0.14600
N912        N  0.87401492  0.44899548  0.40531945     0.73700
O913        O  0.88780958  0.27707316  0.38260283    -0.39700
O914        O  0.83304403  0.25229331  0.41648393    -0.39700
O915        O  0.90069097  0.47902042  0.38670328    -0.40400
O916        O  0.84463553  0.45324794  0.41945165    -0.40400
C917        C  0.91133814  0.37710942  0.09404660    -0.12700
C918        C  0.89243758  0.39280800  0.07156111     0.04300
C919        C  0.84845629  0.38229585  0.07572423    -0.08000
C920        C  0.82496101  0.35800433  0.10282541    -0.08700
C921        C  0.84434575  0.34339489  0.12586962    -0.03300
C922        C  0.88807657  0.35310600  0.12126739     0.03500
N923        N  0.91014948  0.34096152  0.14477719     0.66000
H924        H  0.94496016  0.38449298  0.09089523     0.14900
H925        H  0.79088179  0.34952357  0.10536855     0.14600
N926        N  0.82618238  0.39301432  0.05143625     0.73700
O927        O  0.91682604  0.30974956  0.13886090    -0.39700
O928        O  0.93055058  0.36664472  0.16784766    -0.39700
O929        O  0.80559819  0.36582536  0.02921323    -0.40400
O930        O  0.81892032  0.42409397  0.05618504    -0.40400
Fe931      Fe  0.85243863  0.12309455  0.75235098     1.65800
Fe932      Fe  0.76971937  0.14594578  0.75058934     1.73200
Fe933      Fe  0.87567903  0.22855079  0.75114767     1.54400
O934        O  0.90834646  0.22460505  0.79138190    -0.82100
O935        O  0.77672513  0.19690891  0.72137755    -0.80400
O936        O  0.90512622  0.16074492  0.78251402    -0.84600
O937        O  0.89140759  0.15095548  0.71183625    -0.79500
O938        O  0.83792952  0.24345258  0.78100601    -0.81300
O939        O  0.76014845  0.10777130  0.70982781    -0.84000
C940        C  0.92065235  0.19077990  0.70783691     0.96800
C941        C  0.92181701  0.19779768  0.79623036     1.04200
O942        O  0.83263353  0.16588718  0.75177670    -1.13000
O943        O  0.75371347  0.09274173  0.78069276    -0.75400
O944        O  0.81472736  0.09066076  0.79231917    -0.78900
O945        O  0.91966752  0.22195806  0.72215632    -0.79600
C946        C  0.77398230  0.07668971  0.79587439     0.95700
O947        O  0.80234481  0.07939380  0.72283695    -0.77600
O948        O  0.77383842  0.18264899  0.79062739    -0.82700
C949        C  0.80807607  0.22909744  0.70683021     0.98300
C950        C  0.80108379  0.22290565  0.79532718     1.04200
O951        O  0.84782842  0.23888524  0.71018834    -0.78400
C952        C  0.77085684  0.07848551  0.70704370     1.02500
Fe953      Fe  0.62364530  0.35295747  0.74837548     1.65800
Fe954      Fe  0.64671217  0.27030820  0.74914424     1.73200
Fe955      Fe  0.72948718  0.37602516  0.75028566     1.54400
O956        O  0.72353377  0.42034273  0.72081660    -0.82100
O957        O  0.68373565  0.27411795  0.78926120    -0.80400
O958        O  0.65286548  0.39223831  0.70796196    -0.84600
O959        O  0.66036620  0.40525734  0.77899573    -0.79500
O960        O  0.74130384  0.34865321  0.70993259    -0.81300
O961        O  0.59418095  0.25508320  0.77941606    -0.84000
C962        C  0.69650602  0.42086231  0.79435239     0.96800
C963        C  0.69296214  0.42181812  0.70541832     1.04200
O964        O  0.66659536  0.33303041  0.74950079    -1.13000
O965        O  0.60764343  0.25954613  0.70843567    -0.75400
O966        O  0.57985447  0.30265196  0.71885205    -0.78900
O967        O  0.72362114  0.40753212  0.79031468    -0.79600
C968        C  0.57816761  0.26997450  0.70480147     0.95700
O969        O  0.59044874  0.31555866  0.78815495    -0.77600
O970        O  0.69744712  0.27746303  0.71996336    -0.82700
C971        C  0.72394112  0.30129725  0.79454130     0.98300
C972        C  0.73045437  0.30879457  0.70609279     1.04200
O973        O  0.74441671  0.33844204  0.78071463    -0.78400
C974        C  0.57776897  0.27552270  0.79344089     1.02500
C975        C  0.81873108  0.31772388  0.65243821     0.79800
N976        N  0.82498371  0.28557834  0.66519916    -0.78500
C977        C  0.79803060  0.25897600  0.68888226     0.82200
N978        N  0.76553249  0.26528545  0.70019489    -0.78500
C979        C  0.75994700  0.29814175  0.68848263     0.82300
N980        N  0.78677262  0.32456202  0.66468111    -0.80200
C981        C  0.81000777  0.30900953  0.84973828     0.79800
N982        N  0.77771889  0.31528226  0.83714221    -0.78500
C983        C  0.74992805  0.28794800  0.81418451     0.82200
N984        N  0.75535310  0.25495375  0.80301305    -0.78500
C985        C  0.78806436  0.24894411  0.81470746     0.82300
N986        N  0.81576262  0.27646567  0.83768260    -0.80200
C987        C  0.68864480  0.49708466  0.85100308     0.79800
N988        N  0.71962510  0.03642409  0.83795608    -0.78500
C989        C  0.74740331  0.03703590  0.81498593     0.82200
N990        N  0.74197270  0.49844278  0.80289367    -0.78500
C991        C  0.70928785  0.45960885  0.81416278     0.82300
N992        N  0.68223691  0.45904410  0.83781776    -0.80200
C993        C  0.68793706  0.50163908  0.64915291     0.79800
N994        N  0.71883214  0.03890551  0.66257621    -0.78500
C995        C  0.74302516  0.03884664  0.68833390     0.82200
N996        N  0.73631960  0.50053564  0.70004670    -0.78500
C997        C  0.70464590  0.46220865  0.68746485     0.82300
N998        N  0.67999425  0.46280732  0.66228774    -0.80200
C999        C  0.49720178  0.18069432  0.65220714     0.79800
N1000       N  0.53642803  0.21289279  0.66402806    -0.78500
C1001       C  0.53743952  0.24019612  0.68748922     0.82200
N1002       N  0.49914678  0.23436944  0.69966886    -0.78500
C1003       C  0.96001419  0.20134928  0.68911279     0.82300
N1004       N  0.95913222  0.17425656  0.66561937    -0.80200
C1005       C  0.00156190  0.19135186  0.85030414     0.79800
N1006       N  0.96268837  0.18507948  0.83844949    -0.78500
C1007       C  0.96180284  0.21163198  0.81497203     0.82200
N1008       N  0.00006270  0.24380727  0.80247037    -0.78500
C1009       C  0.53906730  0.24977737  0.81346153     0.82300
N1010       N  0.53971779  0.22307844  0.83703720    -0.80200
Fe1011     Fe  0.99804604  0.44338072  0.99910333     1.65800
Fe1012     Fe  0.94235970  0.49951269  0.49856128     1.73200
Fe1013     Fe  0.55466901  0.05495739  0.49979977     1.54400
O1014       O  0.58369431  0.03341363  0.53304260    -0.82100
O1015       O  0.96165590  0.04749688  0.96392718    -0.80400
O1016       O  0.54388805  0.46326309  0.53608379    -0.84600
O1017       O  0.54805316  0.46490394  0.96531834    -0.79500
O1018       O  0.53498413  0.07766009  0.53829755    -0.81300
O1019       O  0.91372617  0.45209546  0.96443862    -0.84000
C1020       C  0.57635042  0.00269303  0.95276605     0.96800
C1021       C  0.57536664  0.49954855  0.54568830     1.04200
O1022       O  0.99905913  0.50028430  0.49854047    -1.13000
O1023       O  0.91518262  0.45223814  0.53406311    -0.75400
O1024       O  0.95076134  0.41502231  0.53216424    -0.78900
O1025       O  0.58084487  0.03881004  0.96217941    -0.79600
C1026       C  0.92116818  0.42148412  0.54367900     0.95700
O1027       O  0.95360174  0.41927811  0.96126928    -0.77600
O1028       O  0.96196872  0.04400450  0.53556195    -0.82700
C1029       C  0.99814288  0.07862726  0.95426417     0.98300
C1030       C  0.49832043  0.07122908  0.54861960     1.04200
O1031       O  0.53450898  0.08579100  0.96600972    -0.78400
C1032       C  0.92189299  0.42424790  0.95182526     1.02500
C1033       C  0.96367339  0.13948825  0.89558213    -0.12700
C1034       C  0.00155194  0.16235521  0.87646110     0.04300
C1035       C  0.53821011  0.15726384  0.88318581    -0.08000
C1036       C  0.53650567  0.13044157  0.90892250    -0.08700
C1037       C  0.99855087  0.10750152  0.92792322    -0.03300
C1038       C  0.96172605  0.11217438  0.92093871     0.03500
N1039       N  0.92241925  0.09044824  0.93978966     0.66000
H1040       H  0.93524561  0.14314541  0.89119088     0.14900
H1041       H  0.56485289  0.12668183  0.91346303     0.14600
N1042       N  0.57656748  0.17710595  0.86324319     0.73700
O1043       O  0.91850796  0.10905329  0.96455385    -0.39700
O1044       O  0.88881079  0.05794958  0.92800296    -0.39700
O1045       O  0.61175693  0.20861455  0.87413940    -0.40400
O1046       O  0.57757756  0.15791674  0.83779993    -0.40400
C1047       C  0.53280188  0.14586451  0.62231102    -0.12700
C1048       C  0.49620605  0.15129828  0.62631616     0.04300
C1049       C  0.95961963  0.12855136  0.60545207    -0.08000
C1050       C  0.96080307  0.10206930  0.58088960    -0.08700
C1051       C  0.49777679  0.09737193  0.57642876    -0.03300
C1052       C  0.53381485  0.11904775  0.59792305     0.03500
N1053       N  0.57122159  0.11334301  0.59602585     0.66000
H1054       H  0.56081666  0.16213261  0.63849253     0.14900
H1055       H  0.93280912  0.08593581  0.56467245     0.14600
N1056       N  0.92168068  0.13329413  0.60782778     0.73700
O1057       O  0.60620207  0.14292837  0.58328923    -0.39700
O1058       O  0.57216314  0.08374599  0.61276557    -0.39700
O1059       O  0.91871587  0.16094785  0.59003406    -0.40400
O1060       O  0.88790132  0.10412619  0.62212607    -0.40400
C1061       C  0.64773869  0.53372584  0.57373070    -0.12700
C1062       C  0.60371106  0.49993084  0.57246664     0.04300
C1063       C  0.58789180  0.46716597  0.59671677    -0.08000
C1064       C  0.61613169  0.46815590  0.62104837    -0.08700
C1065       C  0.66011679  0.50172521  0.62223891    -0.03300
C1066       C  0.67596793  0.53486877  0.59826586     0.03500
N1067       N  0.72100406  0.56872855  0.59756640     0.66000
H1068       H  0.66066599  0.55902751  0.55516900     0.14900
H1069       H  0.60304929  0.44304788  0.63975422     0.14600
N1070       N  0.54252800  0.43461533  0.59858890     0.73700
O1071       O  0.74872809  0.56224105  0.58305453    -0.39700
O1072       O  0.72781395  0.10703910  0.60750624    -0.39700
O1073       O  0.53021521  0.39634023  0.58889286    -0.40400
O1074       O  0.52007453  0.92716099  0.61714065    -0.40400
C1075       C  0.66924066  0.03792095  0.89147286    -0.12700
C1076       C  0.65926983  0.49706865  0.87708154     0.04300
C1077       C  0.62082204  0.45871090  0.88740762    -0.08000
C1078       C  0.59458113  0.46105844  0.91187672    -0.08700
C1079       C  0.60462581  0.00232581  0.92615362    -0.03300
C1080       C  0.64337397  0.04040615  0.91611472     0.03500
N1081       N  0.65776558  0.08182481  0.93109137     0.66000
H1082       H  0.69912435  0.06762193  0.88480072     0.14900
H1083       H  0.56517085  0.43117375  0.91902633     0.14600
N1084       N  0.60733731  0.41701057  0.87325397     0.73700
O1085       O  0.68416918  0.09334958  0.95472811    -0.39700
O1086       O  0.65140210  0.10992292  0.91681288    -0.39700
O1087       O  0.61461682  0.38996264  0.88822743    -0.40400
O1088       O  0.58064410  0.40407733  0.84976220    -0.40400
C1089       C  0.90787072  0.37273452  0.90629264    -0.12700
C1090       C  0.89328124  0.39596233  0.92518074     0.04300
C1091       C  0.85138584  0.39072981  0.91852008    -0.08000
C1092       C  0.82538483  0.36268478  0.89374036    -0.08700
C1093       C  0.83975764  0.33907400  0.87513909    -0.03300
C1094       C  0.88181350  0.34465184  0.88152375     0.03500
N1095       N  0.89933267  0.32319027  0.86260013     0.66000
H1096       H  0.94006237  0.37652811  0.91054368     0.14900
H1097       H  0.79310905  0.35872272  0.88958175     0.14600
N1098       N  0.83370547  0.41207570  0.93741234     0.73700
O1099       O  0.92119675  0.34170358  0.83739524    -0.39700
O1100       O  0.90069152  0.29081241  0.87441597    -0.39700
O1101       O  0.83272307  0.44467734  0.92567169    -0.40400
O1102       O  0.81040690  0.39268591  0.96185022    -0.40400
C1103       C  0.91286881  0.37835604  0.59343607    -0.12700
C1104       C  0.89371702  0.39293522  0.57028876     0.04300
C1105       C  0.84943742  0.38168801  0.57395204    -0.08000
C1106       C  0.82594545  0.35785830  0.60120903    -0.08700
C1107       C  0.84560859  0.34444304  0.62491288    -0.03300
C1108       C  0.88967805  0.35498166  0.62088360     0.03500
N1109       N  0.91212392  0.34459635  0.64528708     0.66000
H1110       H  0.94685233  0.38634047  0.59064947     0.14900
H1111       H  0.79159881  0.34874899  0.60337690     0.14600
N1112       N  0.82706882  0.39151812  0.54915134     0.73700
O1113       O  0.92113448  0.31476117  0.64018377    -0.39700
O1114       O  0.93055358  0.37074168  0.66850658    -0.39700
O1115       O  0.80896676  0.36498050  0.52609593    -0.40400
O1116       O  0.81799493  0.42142936  0.55361551    -0.40400
Fe1117     Fe  0.85388186  0.62390620  0.25174664     1.65800
Fe1118     Fe  0.77043472  0.64559252  0.25001489     1.73200
Fe1119     Fe  0.87587432  0.72892065  0.25127068     1.54400
O1120       O  0.90808277  0.72481590  0.29167746    -0.82100
O1121       O  0.77712120  0.69671673  0.22114977    -0.80400
O1122       O  0.90657890  0.66195747  0.28194156    -0.84600
O1123       O  0.89260128  0.65237402  0.21122139    -0.79500
O1124       O  0.83729998  0.74294653  0.28107480    -0.81300
O1125       O  0.76165646  0.60807944  0.20902059    -0.84000
C1126       C  0.92183310  0.69230608  0.20771829     0.96800
C1127       C  0.92236596  0.69861599  0.29617364     1.04200
O1128       O  0.83341215  0.66616256  0.25140967    -1.13000
O1129       O  0.75498973  0.59237536  0.27988222    -0.75400
O1130       O  0.81645705  0.59125076  0.29175931    -0.78900
O1131       O  0.92058186  0.72311846  0.22243672    -0.79600
C1132       C  0.77564719  0.57694515  0.29531287     0.95700
O1133       O  0.80377246  0.57971549  0.22223353    -0.77600
O1134       O  0.77369250  0.68147311  0.29031381    -0.82700
C1135       C  0.80842764  0.72926202  0.20686574     0.98300
C1136       C  0.80043972  0.72175337  0.29532911     1.04200
O1137       O  0.84823502  0.73926392  0.21023264    -0.78400
C1138       C  0.77222791  0.57868383  0.20638900     1.02500
Fe1139     Fe  0.62494693  0.85402457  0.24962462     1.65800
Fe1140     Fe  0.64687525  0.77082355  0.25041625     1.73200
Fe1141     Fe  0.73023626  0.87607559  0.25191251     1.54400
O1142       O  0.72464448  0.92093078  0.22248982    -0.82100
O1143       O  0.68294144  0.77396510  0.29088657    -0.80400
O1144       O  0.65416392  0.89233117  0.20890305    -0.84600
O1145       O  0.66225930  0.90656517  0.27984609    -0.79500
O1146       O  0.74154551  0.84876309  0.21141207    -0.81300
O1147       O  0.59392615  0.75612362  0.28015479    -0.84000
C1148       C  0.69798665  0.92146882  0.29566011     0.96800
C1149       C  0.69418520  0.92206971  0.20656763     1.04200
O1150       O  0.66736116  0.83357020  0.25096461    -1.13000
O1151       O  0.60889639  0.76106948  0.20927187    -0.75400
O1152       O  0.58073109  0.80361147  0.22041862    -0.78900
O1153       O  0.72453501  0.90734627  0.29213039    -0.79600
C1154       C  0.57932227  0.77138157  0.20587268     0.95700
O1155       O  0.59200733  0.81741311  0.28966493    -0.77600
O1156       O  0.69794178  0.77762519  0.22174748    -0.82700
C1157       C  0.72337501  0.80038589  0.29598113     0.98300
C1158       C  0.73078892  0.80892613  0.20770384     1.04200
O1159       O  0.74447527  0.83752722  0.28212486    -0.78400
C1160       C  0.57831852  0.77710191  0.29450533     1.02500
C1161       C  0.81881420  0.81870242  0.15360147     0.79800
N1162       N  0.82516312  0.78638310  0.16585601    -0.78500
C1163       C  0.79825795  0.75933447  0.18937870     0.82200
N1164       N  0.76577104  0.76540454  0.20106609    -0.78500
C1165       C  0.76013495  0.79842368  0.18982243     0.82300
N1166       N  0.78685970  0.82523923  0.16616915    -0.80200
C1167       C  0.80717716  0.80481878  0.35210912     0.79800
N1168       N  0.77551380  0.81191795  0.33931867    -0.78500
C1169       C  0.74868057  0.78596825  0.31540878     0.82200
N1170       N  0.75457209  0.75363749  0.30338266    -0.78500
C1171       C  0.78679734  0.74692827  0.31518864     0.82300
N1172       N  0.81357490  0.77313053  0.33910905    -0.80200
C1173       C  0.68931238  0.99830906  0.35082304     0.79800
N1174       N  0.72162092  0.53747570  0.33765822    -0.78500
C1175       C  0.74942835  0.53770637  0.31486474     0.82200
N1176       N  0.74389791  0.99893294  0.30410893    -0.78500
C1177       C  0.71092340  0.96026936  0.31537110     0.82300
N1178       N  0.68326306  0.96007426  0.33833571    -0.80200
C1179       C  0.68787526  0.00106905  0.15005695     0.79800
N1180       N  0.71881728  0.53870006  0.16275578    -0.78500
C1181       C  0.74395620  0.53882294  0.18792746     0.82200
N1182       N  0.73747985  0.00067135  0.20041552    -0.78500
C1183       C  0.70563541  0.96217184  0.18822479     0.82300
N1184       N  0.68035324  0.96240878  0.16330987    -0.80200
C1185       C  0.49911521  0.68370851  0.15188394     0.79800
N1186       N  0.53818446  0.71545449  0.16425106    -0.78500
C1187       C  0.53886155  0.74202243  0.18818801     0.82200
N1188       N  0.50043255  0.73593861  0.20026911    -0.78500
C1189       C  0.96145929  0.70334384  0.18916534     0.82300
N1190       N  0.96089372  0.67696245  0.16521241    -0.80200
C1191       C  0.00193674  0.69412408  0.35178084     0.79800
N1192       N  0.96307276  0.68706862  0.33925665    -0.78500
C1193       C  0.96221804  0.71292725  0.31519040     0.82200
N1194       N  0.00049044  0.74509394  0.30271608    -0.78500
C1195       C  0.53945950  0.75180658  0.31438907     0.82300
N1196       N  0.54007619  0.72588348  0.33856666    -0.80200
Fe1197     Fe  0.99906691  0.94324574  0.49817880     1.65800
Fe1198     Fe  0.94212849  0.00073705  0.99964063     1.73200
Fe1199     Fe  0.55465429  0.55513205  0.99984873     1.54400
O1200       O  0.58299511  0.53367265  0.03378575    -0.82100
O1201       O  0.96138730  0.54647014  0.46298221    -0.80400
O1202       O  0.54238267  0.96275019  0.03739584    -0.84600
O1203       O  0.54858987  0.96571083  0.46407997    -0.79500
O1204       O  0.53586713  0.57956633  0.03778902    -0.81300
O1205       O  0.91515551  0.95225057  0.46239354    -0.84000
C1206       C  0.57739229  0.50343370  0.45177643     0.96800
C1207       C  0.57417760  0.99891611  0.04695382     1.04200
O1208       O  0.99848591  0.00077360  0.99958377    -1.13000
O1209       O  0.91458225  0.95377209  0.03527547    -0.75400
O1210       O  0.94920513  0.91565687  0.03296648    -0.78900
O1211       O  0.58160306  0.53943956  0.46123776    -0.79600
C1212       C  0.92010986  0.92268433  0.04471811     0.95700
O1213       O  0.95440805  0.91863797  0.46070723    -0.77600
O1214       O  0.96291709  0.54634989  0.03569356    -0.82700
C1215       C  0.99774015  0.57821441  0.45373197     0.98300
C1216       C  0.49952637  0.57383831  0.04821072     1.04200
O1217       O  0.53418073  0.58556975  0.46553497    -0.78400
C1218       C  0.92341921  0.92412645  0.45039155     1.02500
C1219       C  0.96245044  0.63780278  0.39427773    -0.12700
C1220       C  0.00199862  0.66509962  0.37795538     0.04300
C1221       C  0.54008133  0.66357070  0.38701232    -0.08000
C1222       C  0.53781135  0.63540019  0.41185955    -0.08700
C1223       C  0.99817498  0.60793630  0.42800442    -0.03300
C1224       C  0.96012882  0.60945696  0.41896117     0.03500
N1225       N  0.91896978  0.58327540  0.43491043     0.66000
H1226       H  0.93281046  0.63854635  0.38814209     0.14900
H1227       H  0.56736464  0.63449588  0.41804187     0.14600
N1228       N  0.58104927  0.68909120  0.37066879     0.73700
O1229       O  0.91034040  0.59762864  0.46012467    -0.39700
O1230       O  0.88825927  0.55137998  0.42007773    -0.39700
O1231       O  0.61181216  0.72198911  0.38460061    -0.40400
O1232       O  0.58922430  0.67398358  0.34565992    -0.40400
C1233       C  0.53483195  0.64927511  0.12153478    -0.12700
C1234       C  0.49839070  0.65497389  0.12555214     0.04300
C1235       C  0.96205683  0.63291646  0.10439593    -0.08000
C1236       C  0.96304069  0.60633637  0.07982796    -0.08700
C1237       C  0.49962410  0.60094058  0.07558054    -0.03300
C1238       C  0.53569358  0.62244126  0.09707297     0.03500
N1239       N  0.57286949  0.61635979  0.09519819     0.66000
H1240       H  0.56275650  0.66520936  0.13783053     0.14900
H1241       H  0.93510900  0.59048718  0.06352747     0.14600
N1242       N  0.92450436  0.63833422  0.10657179     0.73700
O1243       O  0.60762646  0.64527188  0.08176475    -0.39700
O1244       O  0.57395503  0.58724576  0.11246689    -0.39700
O1245       O  0.92202312  0.66608824  0.08856918    -0.40400
O1246       O  0.89056656  0.60971718  0.12104805    -0.40400
C1247       C  0.64658438  0.03316172  0.07509016    -0.12700
C1248       C  0.60265601  0.99913336  0.07371734     0.04300
C1249       C  0.58722496  0.96609691  0.09779724    -0.08000
C1250       C  0.61575105  0.96708180  0.12197686    -0.08700
C1251       C  0.65963258  0.00094048  0.12325426    -0.03300
C1252       C  0.67503561  0.03434079  0.09947646     0.03500
N1253       N  0.71988395  0.06863940  0.09883962     0.66000
H1254       H  0.65930039  0.05872169  0.05672473     0.14900
H1255       H  0.60295264  0.94175752  0.14052485     0.14600
N1256       N  0.54195052  0.93332323  0.09976086     0.73700
O1257       O  0.74782038  0.06297679  0.08383565    -0.39700
O1258       O  0.73171538  0.60399820  0.10447975    -0.39700
O1259       O  0.52975813  0.89528932  0.08956318    -0.40400
O1260       O  0.51647809  0.44178645  0.11755186    -0.40400
C1261       C  0.67278576  0.53837008  0.39296104    -0.12700
C1262       C  0.65934481  0.99868422  0.37608232     0.04300
C1263       C  0.61875026  0.96122537  0.38406279    -0.08000
C1264       C  0.59256762  0.96343595  0.40858593    -0.08700
C1265       C  0.60593912  0.50340015  0.42532232    -0.03300
C1266       C  0.64672199  0.54063040  0.41757031     0.03500
N1267       N  0.66313283  0.58058750  0.43517082     0.66000
H1268       H  0.70430846  0.56719535  0.38803701     0.14900
H1269       H  0.56156418  0.93425644  0.41409489     0.14600
N1270       N  0.60274702  0.92089031  0.36705157     0.73700
O1271       O  0.68664430  0.58683365  0.46004121    -0.39700
O1272       O  0.66174955  0.61245512  0.42236677    -0.39700
O1273       O  0.60364433  0.88922604  0.38068633    -0.40400
O1274       O  0.58004022  0.91422355  0.34165934    -0.40400
C1275       C  0.89239030  0.85439991  0.41981083    -0.12700
C1276       C  0.89486648  0.89502379  0.42419079     0.04300
C1277       C  0.86863901  0.90574844  0.40443621    -0.08000
C1278       C  0.84037347  0.87582749  0.38141358    -0.08700
C1279       C  0.83749893  0.83495568  0.37723862    -0.03300
C1280       C  0.86415139  0.82446053  0.39678364     0.03500
N1281       N  0.86199276  0.78304457  0.39454493     0.66000
H1282       H  0.91178979  0.84514176  0.43494727     0.14900
H1283       H  0.82094858  0.88515972  0.36639085     0.14600
N1284       N  0.87111037  0.94730677  0.40667210     0.73700
O1285       O  0.89091709  0.78002109  0.37863415    -0.39700
O1286       O  0.83755648  0.75261709  0.41379495    -0.39700
O1287       O  0.89673703  0.97809242  0.38812228    -0.40400
O1288       O  0.84175359  0.95039273  0.42190672    -0.40400
C1289       C  0.91238510  0.88003143  0.09448601    -0.12700
C1290       C  0.89294079  0.89447016  0.07150234     0.04300
C1291       C  0.84873467  0.88332415  0.07549022    -0.08000
C1292       C  0.82550877  0.85929209  0.10274959    -0.08700
C1293       C  0.84545336  0.84585465  0.12620532    -0.03300
C1294       C  0.88957734  0.85672756  0.12202646     0.03500
N1295       N  0.91243758  0.84686811  0.14642313     0.66000
H1296       H  0.94650182  0.88816701  0.09148026     0.14900
H1297       H  0.79110979  0.85006926  0.10513410     0.14600
N1298       N  0.82620447  0.89352079  0.05105262     0.73700
O1299       O  0.92278232  0.81802821  0.14109716    -0.39700
O1300       O  0.92998987  0.87280893  0.16988452    -0.39700
O1301       O  0.80659689  0.86658337  0.02847536    -0.40400
O1302       O  0.81830081  0.92420401  0.05565930    -0.40400
Fe1303     Fe  0.85296762  0.62321516  0.75257840     1.65800
Fe1304     Fe  0.77006330  0.64581805  0.75104770     1.73200
Fe1305     Fe  0.87577716  0.72846641  0.75162684     1.54400
O1306       O  0.90799905  0.72442615  0.79205120    -0.82100
O1307       O  0.77706879  0.69707907  0.72214572    -0.80400
O1308       O  0.90580056  0.66110112  0.78284594    -0.84600
O1309       O  0.89185702  0.65121866  0.71198041    -0.79500
O1310       O  0.83768917  0.74319535  0.78132361    -0.81300
O1311       O  0.76076358  0.60817207  0.71007381    -0.84000
C1312       C  0.92108722  0.69108464  0.70815515     0.96800
C1313       C  0.92192476  0.69798281  0.79683607     1.04200
O1314       O  0.83295558  0.66583124  0.75216222    -1.13000
O1315       O  0.75411130  0.59234905  0.78088069    -0.75400
O1316       O  0.81533332  0.59070330  0.79259183    -0.78900
O1317       O  0.92006532  0.72207605  0.72276401    -0.79600
C1318       C  0.77452747  0.57648810  0.79610994     0.95700
O1319       O  0.80269752  0.57943883  0.72297215    -0.77600
O1320       O  0.77405780  0.68207311  0.79130907    -0.82700
C1321       C  0.80839830  0.72916675  0.70748597     0.98300
C1322       C  0.80099576  0.72243504  0.79584255     1.04200
O1323       O  0.84808046  0.73863001  0.71055560    -0.78400
C1324       C  0.77129495  0.57877817  0.70716233     1.02500
Fe1325     Fe  0.62402364  0.85306619  0.74921076     1.65800
Fe1326     Fe  0.64672706  0.77024255  0.75008814     1.73200
Fe1327     Fe  0.72967340  0.87599583  0.75177190     1.54400
O1328       O  0.72396662  0.92041503  0.72217615    -0.82100
O1329       O  0.68350592  0.77361322  0.79022498    -0.80400
O1330       O  0.65344836  0.89189240  0.70866514    -0.84600
O1331       O  0.66067401  0.90557148  0.77957620    -0.79500
O1332       O  0.74186274  0.84884019  0.71149117    -0.81300
O1333       O  0.59403222  0.75515622  0.78035462    -0.84000
C1334       C  0.69650901  0.92105086  0.79528590     0.96800
C1335       C  0.69352763  0.92158101  0.70632043     1.04200
O1336       O  0.66681273  0.83300756  0.75061918    -1.13000
O1337       O  0.60793230  0.75974665  0.70922829    -0.75400
O1338       O  0.58014436  0.80275238  0.71983172    -0.78900
O1339       O  0.72345352  0.90739632  0.79177885    -0.79600
C1340       C  0.57852290  0.77025014  0.70559132     0.95700
O1341       O  0.59094382  0.81600357  0.78912031    -0.77600
O1342       O  0.69765132  0.77752902  0.72097353    -0.82700
C1343       C  0.72367073  0.80072545  0.79569968     0.98300
C1344       C  0.73087917  0.80899505  0.70737269     1.04200
O1345       O  0.74421835  0.83811303  0.78221493    -0.78400
C1346       C  0.57796369  0.77590851  0.79444928     1.02500
C1347       C  0.81938012  0.81842717  0.65370145     0.79800
N1348       N  0.82555347  0.78614130  0.66625921    -0.78500
C1349       C  0.79849743  0.75931507  0.68980584     0.82200
N1350       N  0.76598250  0.76553949  0.70120327    -0.78500
C1351       C  0.76046479  0.79852170  0.68969453     0.82300
N1352       N  0.78738126  0.82516342  0.66600402    -0.80200
C1353       C  0.80979035  0.80813229  0.85065420     0.79800
N1354       N  0.77741217  0.81433319  0.83815168    -0.78500
C1355       C  0.74955415  0.78710440  0.81520276     0.82200
N1356       N  0.75502071  0.75421794  0.80382201    -0.78500
C1357       C  0.78783063  0.74825056  0.81536881     0.82300
N1358       N  0.81555776  0.77572156  0.83834340    -0.80200
C1359       C  0.68722973  0.99784262  0.85030808     0.79800
N1360       N  0.72091449  0.53582043  0.83868533    -0.78500
C1361       C  0.74807320  0.53662990  0.81507319     0.82200
N1362       N  0.74182754  0.99873236  0.80345508    -0.78500
C1363       C  0.70905217  0.95998109  0.81481083     0.82300
N1364       N  0.68137316  0.95964765  0.83784900    -0.80200
C1365       C  0.68869154  0.00033967  0.64881937     0.79800
N1366       N  0.71869094  0.53994549  0.66286574    -0.78500
C1367       C  0.74322728  0.53938652  0.68821462     0.82200
N1368       N  0.73634115  0.00026900  0.70058497    -0.78500
C1369       C  0.70522641  0.96170039  0.68799569     0.82300
N1370       N  0.68099630  0.96178222  0.66234976    -0.80200
C1371       C  0.49795646  0.68284097  0.65149342     0.79800
N1372       N  0.53710081  0.71452271  0.66383563    -0.78500
C1373       C  0.53792908  0.74083899  0.68801734     0.82200
N1374       N  0.49956894  0.73455360  0.70037369    -0.78500
C1375       C  0.96053787  0.70199256  0.68936622     0.82300
N1376       N  0.95978351  0.67584389  0.66512156    -0.80200
C1377       C  0.00160345  0.69456715  0.85316726     0.79800
N1378       N  0.96273358  0.68740129  0.84051025    -0.78500
C1379       C  0.96190931  0.71241968  0.81577545     0.82200
N1380       N  0.00018238  0.74390148  0.80283959    -0.78500
C1381       C  0.53913252  0.75059980  0.81447970     0.82300
N1382       N  0.53976761  0.72533854  0.83922552    -0.80200
Fe1383     Fe  0.99854294  0.94496273  0.99918873     1.65800
Fe1384     Fe  0.94188352  0.99828050  0.49887121     1.73200
Fe1385     Fe  0.55516559  0.55656638  0.49907060     1.54400
O1386       O  0.58410630  0.53577399  0.53291778    -0.82100
O1387       O  0.96126159  0.54575550  0.96383095    -0.80400
O1388       O  0.54329143  0.96097749  0.53586579    -0.84600
O1389       O  0.54833788  0.96640158  0.96530345    -0.79500
O1390       O  0.53548902  0.58010586  0.53700629    -0.81300
O1391       O  0.91469662  0.95406265  0.96366864    -0.84000
C1392       C  0.57636672  0.50120967  0.95292584     0.96800
C1393       C  0.57511979  0.99702454  0.54542881     1.04200
O1394       O  0.99848176  0.99881439  0.49886474    -1.13000
O1395       O  0.91436965  0.95054650  0.53398365    -0.75400
O1396       O  0.95009961  0.91346158  0.53231190    -0.78900
O1397       O  0.58058987  0.53732186  0.96209385    -0.79600
C1398       C  0.92048292  0.91994526  0.54376579     0.95700
O1399       O  0.95427441  0.92093130  0.96138848    -0.77600
O1400       O  0.96241949  0.54593442  0.53482132    -0.82700
C1401       C  0.99765854  0.57709890  0.95417583     0.98300
C1402       C  0.49889956  0.57373052  0.54742563     1.04200
O1403       O  0.53406912  0.58443174  0.96606015    -0.78400
C1404       C  0.92310689  0.92628392  0.95123189     1.02500
C1405       C  0.96208847  0.62685450  0.88646320    -0.12700
C1406       C  0.00154474  0.66555391  0.87948400     0.04300
C1407       C  0.53959149  0.67486117  0.89745981    -0.08000
C1408       C  0.53744422  0.64563609  0.92146687    -0.08700
C1409       C  0.99800163  0.60679667  0.92829828    -0.03300
C1410       C  0.95992976  0.59764727  0.91037982     0.03500
N1411       N  0.91888183  0.55840758  0.91540698     0.66000
H1412       H  0.93238316  0.61853324  0.87296240     0.14900
H1413       H  0.56709063  0.65377507  0.93499324     0.14600
N1414       N  0.58057914  0.71410110  0.89226093     0.73700
O1415       O  0.89063052  0.55904440  0.93380259    -0.39700
O1416       O  0.90745541  0.52659190  0.89640735    -0.39700
O1417       O  0.59171981  0.74638921  0.91071928    -0.40400
O1418       O  0.60898930  0.71326695  0.87416482    -0.40400
C1419       C  0.53366128  0.64859212  0.62100050    -0.12700
C1420       C  0.49725427  0.65434477  0.62497086     0.04300
C1421       C  0.96108200  0.63256921  0.60364527    -0.08000
C1422       C  0.96209546  0.60599722  0.57904381    -0.08700
C1423       C  0.49865232  0.60050515  0.57490404    -0.03300
C1424       C  0.53462865  0.62190851  0.59648638     0.03500
N1425       N  0.57187557  0.61593794  0.59461039     0.66000
H1426       H  0.56149641  0.66436265  0.63739111     0.14900
H1427       H  0.93432519  0.59035844  0.56258089     0.14600
N1428       N  0.92378504  0.63842988  0.60559817     0.73700
O1429       O  0.60702508  0.64548459  0.58204185    -0.39700
O1430       O  0.57242659  0.58594020  0.61108049    -0.39700
O1431       O  0.92234901  0.66720937  0.58814611    -0.40400
O1432       O  0.88912958  0.60934211  0.61903682    -0.40400
C1433       C  0.64723310  0.03242919  0.57399733    -0.12700
C1434       C  0.60404287  0.99702607  0.57170569     0.04300
C1435       C  0.58961656  0.96270997  0.59468792    -0.08000
C1436       C  0.61807030  0.96436872  0.61908404    -0.08700
C1437       C  0.66102283  0.99976076  0.62149839    -0.03300
C1438       C  0.67575481  0.03400107  0.59846469     0.03500
N1439       N  0.71998324  0.06964153  0.59868941     0.66000
H1440       H  0.65930420  0.05887600  0.55636230     0.14900
H1441       H  0.60580784  0.93810159  0.63688284     0.14600
N1442       N  0.54528339  0.92749763  0.59533058     0.73700
O1443       O  0.74938304  0.06580751  0.58418336    -0.39700
O1444       O  0.73122980  0.60715515  0.60548144    -0.39700
O1445       O  0.53556217  0.89232702  0.58093990    -0.40400
O1446       O  0.51781604  0.44106863  0.61702636    -0.40400
C1447       C  0.67012884  0.53688171  0.89218352    -0.12700
C1448       C  0.65758586  0.99818192  0.87593514     0.04300
C1449       C  0.61832098  0.96022157  0.88555925    -0.08000
C1450       C  0.59269744  0.96263546  0.91048291    -0.08700
C1451       C  0.60541530  0.50090343  0.92683566    -0.03300
C1452       C  0.64401222  0.53915919  0.91675739     0.03500
N1453       N  0.65820791  0.58049486  0.93181725     0.66000
H1454       H  0.69961864  0.56680811  0.88525520     0.14900
H1455       H  0.56276158  0.93303717  0.91727338     0.14600
N1456       N  0.60303764  0.91910902  0.86984362     0.73700
O1457       O  0.68348635  0.59139435  0.95611680    -0.39700
O1458       O  0.65312515  0.60913299  0.91710804    -0.39700
O1459       O  0.60651907  0.88925383  0.88413905    -0.40400
O1460       O  0.57828737  0.90974004  0.84533058    -0.40400
C1461       C  0.90220603  0.86453997  0.91296131    -0.12700
C1462       C  0.89505759  0.89791547  0.92434739     0.04300
C1463       C  0.86058559  0.90223258  0.91035599    -0.08000
C1464       C  0.83372709  0.87284199  0.88652263    -0.08700
C1465       C  0.84026281  0.83885044  0.87561824    -0.03300
C1466       C  0.87561871  0.83539328  0.88891306     0.03500
N1467       N  0.88533866  0.80264579  0.87849182     0.66000
H1468       H  0.92860340  0.86054672  0.92292609     0.14900
H1469       H  0.80738569  0.87692994  0.87657977     0.14600
N1470       N  0.85240950  0.93643741  0.91961662     0.73700
O1471       O  0.91316330  0.81158418  0.85625406    -0.39700
O1472       O  0.87352152  0.76892581  0.89576719    -0.39700
O1473       O  0.86699926  0.97035344  0.90214014    -0.40400
O1474       O  0.82309776  0.92870557  0.94036932    -0.40400
C1475       C  0.91307083  0.87846399  0.59422008    -0.12700
C1476       C  0.89330756  0.89187537  0.57066800     0.04300
C1477       C  0.84902137  0.88047218  0.57440538    -0.08000
C1478       C  0.82587336  0.85737496  0.60202111    -0.08700
C1479       C  0.84603837  0.84497100  0.62604483    -0.03300
C1480       C  0.89019756  0.85589960  0.62206435     0.03500
N1481       N  0.91319581  0.84689487  0.64689252     0.66000
H1482       H  0.94666514  0.88669816  0.59145552     0.14900
H1483       H  0.79162703  0.84804600  0.60420396     0.14600
N1484       N  0.82623734  0.88940009  0.54939180     0.73700
O1485       O  0.92266851  0.81722134  0.64263138    -0.39700
O1486       O  0.93174349  0.87414816  0.66946911    -0.39700
O1487       O  0.80728320  0.86176909  0.52710438    -0.40400
O1488       O  0.81762162  0.91975474  0.55310351    -0.40400
loop_ 
_geom_bond_atom_site_label_1 
_geom_bond_atom_site_label_2 
_geom_bond_distance 
_geom_bond_site_symmetry_2 
_ccdc_geom_bond_type 
Fe1          O17   2.064       .  S
Fe1           O7   2.069       .  S
Fe1          O14   2.062       .  S
Fe1           O6   2.071       .  S
Fe1          O12   1.954       .  S
Fe2           O5   2.065       .  S
Fe2           O9   2.075       .  S
Fe2          O13   2.070       .  S
Fe2          O18   2.062       .  S
Fe2          O12   1.956       .  S
Fe3          O21   2.066       .  S
Fe3           O8   2.072       .  S
Fe3          O15   2.066       .  S
Fe3           O4   2.055       .  S
Fe3          O12   1.955       .  S
O4           C11   1.267       .  A
O5           C19   1.268       .  A
O6           C11   1.271       .  A
O7           C10   1.269       .  A
O8           C20   1.271       .  A
O9           C22   1.270       .  A
C10          O15   1.268       .  A
C10          C73   1.463       .  S
C11          C77   1.456       .  S
O13          C16   1.270       .  A
O14          C16   1.269       .  A
C16          C59   1.459       .  S
O17          C22   1.269       .  A
O18          C20   1.269       .  A
C19          O21   1.268       .  A
C19          C47   1.462       .  S
C20          C55   1.459       .  S
C22          C65   1.465       .  S
Fe23         O39   2.059       .  S
Fe23         O29   2.068       .  S
Fe23         O36   2.064       .  S
Fe23         O28   2.074       .  S
Fe23         O34   1.957       .  S
Fe24         O27   2.058       .  S
Fe24         O31   2.070       .  S
Fe24         O35   2.073       .  S
Fe24         O40   2.064       .  S
Fe24         O34   1.958       .  S
Fe25         O43   2.075       .  S
Fe25         O30   2.072       .  S
Fe25         O37   2.064       .  S
Fe25         O26   2.072       .  S
Fe25         O34   1.957       .  S
O26          C33   1.270       .  A
O27          C41   1.268       .  A
O28          C33   1.270       .  A
O29          C32   1.269       .  A
O30          C42   1.270       .  A
O31          C44   1.271       .  A
C32          O37   1.269       .  A
C32          C61   1.460       .  S
C33          C67   1.468       .  S
O35          C38   1.269       .  A
O36          C38   1.268       .  A
C38          C71   1.466       .  S
O39          C44   1.269       .  A
O40          C42   1.269       .  A
C41          O43   1.271       .  A
C41          C53   1.460       .  S
C42          C49   1.464       .  S
C44          C79   1.457       .  S
C45         C177   1.474       .  S
C45          N46   1.360       .  A
C45          N50   1.362       .  A
N46          C47   1.355       .  A
C47          N48   1.354       .  A
N48          C49   1.355       .  A
C49          N50   1.356       .  A
C51         C163   1.484       .  S
C51          N52   1.361       .  A
C51          N56   1.360       .  A
N52          C53   1.355       .  A
C53          N54   1.355       .  A
N54          C55   1.356       .  A
C55          N56   1.357       .  A
C57         C146   1.489       .  S
C57          N62   1.361       .  A
C57         N430   1.361       .  A
N58          C59   1.356       .  A
N58         C429   1.361   1_545  A
C59         N432   1.354   1_545  A
N60          C61   1.355       .  A
N60         C431   1.355       .  A
C61          N62   1.358       .  A
C63         C135   1.478       .  S
C63          N68   1.363       .  A
C63         N436   1.363       .  A
N64          C65   1.357       .  A
N64         C435   1.363       .  A
C65         N438   1.355       .  A
N66          C67   1.354       .  A
N66         C437   1.355       .  A
C67          N68   1.356       .  A
C69         C118   1.481       .  S
C69          N70   1.364   1_655  A
C69         N818   1.361       .  A
N70          C71   1.357       .  A
C71          N72   1.354       .  A
N72         C817   1.354   1_455  A
C73          N74   1.355       .  A
C73         N816   1.354       .  A
N74         C813   1.361       .  A
C75         C104   1.483       .  S
C75          N76   1.360       .  A
C75         N824   1.360       .  A
N76          C77   1.354       .  A
C77          N78   1.354       .  A
N78         C823   1.354       .  A
C79          N80   1.356       .  A
C79         N822   1.354       .  A
N80         C819   1.360       .  A
Fe81         O97   2.056       .  S
Fe81        O831   2.066       .  S
Fe81        O280   2.058       .  S
Fe81       O1016   2.058       .  S
Fe81        O278   1.973       .  S
Fe82         O93   2.054   1_556  S
Fe82        O643   2.053       .  S
Fe82        O275   2.064       .  S
Fe82        O470   2.065   1_556  S
Fe82         O92   1.980       .  S
Fe83         O88   2.053   1_556  S
Fe83         O84   2.063   1_556  S
Fe83        O287   2.060       .  S
Fe83        O281   2.060       .  S
Fe83       O1208   1.977   1_455  S
O84         C463   1.269   1_545  A
O85        Fe640   2.053   1_545  S
O85          C99   1.265       .  A
O86       Fe1011   2.064   1_454  S
O86          C91   1.268       .  A
O87        Fe825   2.066   1_455  S
O87         C462   1.270       .  A
O88         C100   1.267   1_455  A
O89        Fe268   2.066       .  S
O89         C102   1.270       .  A
C90          O95   1.268       .  A
C90         O459   1.270   1_545  A
C90         C149   1.486       .  S
C91         O456   1.268       .  A
C91         C132   1.481       .  S
O92        Fe267   1.972       .  S
O92       Fe1199   1.978       .  S
O93          C96   1.265       .  A
O94        Fe267   2.058   1_554  S
O94          C96   1.267       .  A
O95        Fe269   2.062       .  S
C96         C174   1.473       .  S
O97         C102   1.269       .  A
O98        Fe454   2.066   1_554  S
O98         C844   1.271       .  A
C99         O845   1.268       .  A
C99         C107   1.479       .  S
C100        O842   1.271       .  A
C100        C121   1.481       .  S
O101       Fe269   2.059       .  S
O101        C843   1.268   1_455  A
C102        C160   1.481       .  S
C103        C104   1.405       .  A
C103        C108   1.397       .  A
C103        H110   1.084       .  S
C104        C849   1.414       .  A
C105        C106   1.397       .  A
C105        C848   1.414       .  A
C105        N112   1.429       .  S
C106        C851   1.404   1_455  A
C106        H111   1.085       .  S
C107        C108   1.413       .  A
C107        C850   1.404       .  A
C108        N109   1.430       .  S
N109        O113   1.262       .  A
N109        O114   1.262       .  A
N112        O116   1.262       .  A
N112        O115   1.262       .  A
C117        C118   1.404   1_455  A
C117        C122   1.398       .  A
C117        H124   1.084       .  S
C118        C863   1.414       .  A
C119        C120   1.397       .  A
C119        C862   1.414       .  A
C119        N126   1.429       .  S
C120        C865   1.404       .  A
C120        H125   1.084       .  S
C121        C122   1.414   1_655  A
C121        C864   1.404       .  A
C122        N123   1.430       .  S
N123        O127   1.262       .  A
N123        O128   1.262       .  A
N126        O130   1.262       .  A
N126        O129   1.262       .  A
C131        C132   1.405       .  A
C131        C136   1.399       .  A
C131        H138   1.085       .  S
C132        C133   1.412       .  A
C133        C134   1.398       .  A
C133        N140   1.427       .  S
C134        C135   1.402       .  A
C134        H139   1.085       .  S
C135        C136   1.411       .  A
C136        N137   1.429       .  S
N137        O141   1.262       .  A
N137        O514   1.262       .  A
N140        O516   1.262       .  A
N140        O143   1.262       .  A
O142        N509   1.262       .  A
O144        N512   1.262       .  A
C145        C150   1.399       .  A
C145        C518   1.407   1_545  A
C145        H152   1.084       .  S
C146        C147   1.415       .  A
C146        C517   1.406       .  A
C147        C148   1.400       .  A
C147        N154   1.429       .  S
C148        C521   1.405       .  A
C148        H153   1.085       .  S
C149        C150   1.414       .  A
C149        C520   1.405   1_545  A
C150        N151   1.429       .  S
N151        O155   1.262       .  A
N151        O156   1.262       .  A
N154        O158   1.262       .  A
N154        O157   1.262       .  A
C159        C160   1.405       .  A
C159        C164   1.398       .  A
C159        H166   1.085       .  S
C160        C161   1.411       .  A
C161        C162   1.397       .  A
C161        N168   1.428       .  S
C162        C163   1.406       .  A
C162        H167   1.084       .  S
C163        C164   1.413       .  A
C164        N165   1.429       .  S
N165        O169   1.262       .  A
N165        O170   1.262       .  A
N168        O172   1.262       .  A
N168        O171   1.262       .  A
C173        C174   1.400       .  A
C173        C178   1.395       .  A
C173        H180   1.084       .  S
C174        C175   1.409       .  A
C175        C176   1.397       .  A
C175        N182   1.428       .  S
C176        C177   1.403       .  A
C176        H181   1.086       .  S
C177        C178   1.412       .  A
C178        N179   1.429       .  S
N179        O183   1.262       .  A
N179        O184   1.262       .  A
N182        O186   1.262       .  A
N182        O185   1.262       .  A
Fe187       O203   2.059       .  S
Fe187       O193   2.070       .  S
Fe187       O200   2.063       .  S
Fe187       O192   2.067       .  S
Fe187       O198   1.955       .  S
Fe188       O191   2.068       .  S
Fe188       O195   2.078       .  S
Fe188       O199   2.073       .  S
Fe188       O204   2.063       .  S
Fe188       O198   1.958       .  S
Fe189       O207   2.066       .  S
Fe189       O194   2.068       .  S
Fe189       O201   2.063       .  S
Fe189       O190   2.054       .  S
Fe189       O198   1.958       .  S
O190        C197   1.267       .  A
O191        C205   1.268       .  A
O192        C197   1.270       .  A
O193        C196   1.270       .  A
O194        C206   1.271       .  A
O195        C208   1.271       .  A
C196        O201   1.268       .  A
C196        C259   1.463       .  S
C197        C263   1.455       .  S
O199        C202   1.271       .  A
O200        C202   1.269       .  A
C202        C245   1.461       .  S
O203        C208   1.268       .  A
O204        C206   1.270       .  A
C205        O207   1.268       .  A
C205        C233   1.464       .  S
C206        C241   1.459       .  S
C208        C251   1.465       .  S
Fe209       O225   2.059       .  S
Fe209       O215   2.072       .  S
Fe209       O222   2.067       .  S
Fe209       O214   2.076       .  S
Fe209       O220   1.960       .  S
Fe210       O213   2.061       .  S
Fe210       O217   2.068       .  S
Fe210       O221   2.074       .  S
Fe210       O226   2.064       .  S
Fe210       O220   1.960       .  S
Fe211       O229   2.067       .  S
Fe211       O216   2.074       .  S
Fe211       O223   2.063       .  S
Fe211       O212   2.065       .  S
Fe211       O220   1.958       .  S
O212        C219   1.268       .  A
O213        C227   1.268       .  A
O214        C219   1.271       .  A
O215        C218   1.270       .  A
O216        C228   1.271       .  A
O217        C230   1.270       .  A
C218        O223   1.269       .  A
C218        C247   1.461       .  S
C219        C253   1.467       .  S
O221        C224   1.270       .  A
O222        C224   1.269       .  A
C224        C257   1.468       .  S
O225        C230   1.269       .  A
O226        C228   1.269       .  A
C227        O229   1.269       .  A
C227        C239   1.459       .  S
C228        C235   1.465       .  S
C230        C265   1.457       .  S
C231        C363   1.474       .  S
C231        N232   1.361       .  A
C231        N236   1.362       .  A
N232        C233   1.356       .  A
C233        N234   1.355       .  A
N234        C235   1.355       .  A
C235        N236   1.355       .  A
C237        C349   1.485       .  S
C237        N238   1.361       .  A
C237        N242   1.360       .  A
N238        C239   1.356       .  A
C239        N240   1.355       .  A
N240        C241   1.355       .  A
C241        N242   1.357       .  A
C243        C332   1.494       .  S
C243        N616   1.363       .  A
C243        N248   1.362       .  A
N244        C615   1.362   1_545  A
N244        C245   1.356       .  A
C245        N618   1.355   1_545  A
N246        C617   1.354       .  A
N246        C247   1.355       .  A
C247        N248   1.359       .  A
C249        C321   1.475       .  S
C249        N622   1.362       .  A
C249        N254   1.363       .  A
N250        C621   1.363       .  A
N250        C251   1.357       .  A
C251        N624   1.355       .  A
N252        C623   1.355       .  A
N252        C253   1.354       .  A
C253        N254   1.355       .  A
C255        C304   1.481       .  S
C255        N256   1.364   1_655  A
C255       N1004   1.360       .  A
N256        C257   1.357       .  A
C257        N258   1.355   1_455  A
N258       C1003   1.355       .  A
C259       N1002   1.355       .  A
C259        N260   1.355       .  A
N260        C999   1.360       .  A
C261        C290   1.481       .  S
C261        N262   1.359       .  A
C261       N1010   1.359       .  A
N262        C263   1.353       .  A
C263        N264   1.355       .  A
N264       C1009   1.355       .  A
C265       N1008   1.355       .  A
C265        N266   1.357       .  A
N266       C1005   1.359       .  A
Fe267       O283   2.062       .  S
Fe267      O1017   2.069       .  S
Fe267       O830   2.064   1_556  S
Fe268       O457   2.052       .  S
Fe268       O279   2.055       .  S
Fe268       O656   2.068       .  S
Fe268       O278   1.980       .  S
Fe269       O274   2.055       .  S
Fe269       O270   2.060       .  S
Fe269      O1394   1.978   1_445  S
O270        C649   1.267   1_545  A
O271       Fe454   2.050       .  S
O271        C285   1.265       .  A
O272       Fe825   2.058   1_455  S
O272        C277   1.267       .  A
O273      Fe1011   2.069   1_455  S
O273        C648   1.270       .  A
O274        C286   1.267   1_455  A
O275        C288   1.269       .  A
C276        O645   1.269   1_545  A
C276        O281   1.267       .  A
C276        C335   1.489       .  S
C277        O642   1.267       .  A
C277        C318   1.478       .  S
O278      Fe1385   1.979       .  S
O279        C282   1.266       .  A
O280        C282   1.267       .  A
C282        C360   1.473       .  S
O283        C288   1.271       .  A
O284       Fe640   2.066   1_545  S
O284       C1030   1.271       .  A
C285       O1031   1.268       .  A
C285        C293   1.479       .  S
C286       O1028   1.271       .  A
C286        C307   1.482       .  S
O287       C1029   1.268   1_455  A
C288        C346   1.487       .  S
C289        C290   1.404       .  A
C289        C294   1.395       .  A
C289        H296   1.084       .  S
C290       C1035   1.414       .  A
C291       C1034   1.414       .  A
C291        C292   1.398       .  A
C291        N298   1.429       .  S
C292       C1037   1.404   1_455  A
C292        H297   1.085       .  S
C293       C1036   1.404       .  A
C293        C294   1.413       .  A
C294        N295   1.430       .  S
N295        O299   1.262       .  A
N295        O300   1.262       .  A
N298        O302   1.262       .  A
N298        O301   1.262       .  A
C303        C304   1.404   1_455  A
C303        C308   1.398       .  A
C303        H310   1.084       .  S
C304       C1049   1.414       .  A
C305       C1048   1.414       .  A
C305        C306   1.397       .  A
C305        N312   1.429       .  S
C306       C1051   1.404       .  A
C306        H311   1.084       .  S
C307       C1050   1.404       .  A
C307        C308   1.414   1_655  A
C308        N309   1.430       .  S
N309        O313   1.262       .  A
N309        O314   1.262       .  A
N312        O316   1.262       .  A
N312        O315   1.262       .  A
C317        C318   1.405       .  A
C317        C322   1.399       .  A
C317        H324   1.085       .  S
C318        C319   1.411       .  A
C319        C320   1.395       .  A
C319        N326   1.427       .  S
C320        C321   1.401       .  A
C320        H325   1.085       .  S
C321        C322   1.411       .  A
C322        N323   1.429       .  S
N323        O327   1.262       .  A
N323        O700   1.262       .  A
N326        O702   1.262       .  A
N326        O329   1.262       .  A
O328        N695   1.262       .  A
O330        N698   1.261       .  A
C331        C704   1.407   1_545  A
C331        C336   1.399       .  A
C331        H338   1.084       .  S
C332        C703   1.407       .  A
C332        C333   1.417       .  A
C333        C334   1.401       .  A
C333        N340   1.429       .  S
C334        C707   1.406       .  A
C334        H339   1.084       .  S
C335        C706   1.406   1_545  A
C335        C336   1.414       .  A
C336        N337   1.429       .  S
N337        O341   1.262       .  A
N337        O342   1.262       .  A
N340        O344   1.262       .  A
N340        O343   1.262       .  A
C345        C346   1.406       .  A
C345        C350   1.399       .  A
C345        H352   1.085       .  S
C346        C347   1.415       .  A
C347        C348   1.398       .  A
C347        N354   1.429       .  S
C348        C349   1.404       .  A
C348        H353   1.085       .  S
C349        C350   1.414       .  A
C350        N351   1.429       .  S
N351        O355   1.262       .  A
N351        O356   1.262       .  A
N354        O358   1.261       .  A
N354        O357   1.262       .  A
C359        C360   1.400       .  A
C359        C364   1.395       .  A
C359        H366   1.088       .  S
C360        C361   1.410       .  A
C361        C362   1.397       .  A
C361        N368   1.429       .  S
C362        C363   1.403       .  A
C362        H367   1.087       .  S
C363        C364   1.411       .  A
C364        N365   1.429       .  S
N365        O369   1.262       .  A
N365        O370   1.262       .  A
N368        O372   1.262       .  A
N368        O371   1.262       .  A
Fe373       O389   2.065       .  S
Fe373       O379   2.069       .  S
Fe373       O386   2.063       .  S
Fe373       O378   2.071       .  S
Fe373       O384   1.954       .  S
Fe374       O377   2.068       .  S
Fe374       O381   2.077       .  S
Fe374       O385   2.072       .  S
Fe374       O390   2.063       .  S
Fe374       O384   1.955       .  S
Fe375       O393   2.065       .  S
Fe375       O380   2.072       .  S
Fe375       O387   2.067       .  S
Fe375       O376   2.052       .  S
Fe375       O384   1.956       .  S
O376        C383   1.266       .  A
O377        C391   1.269       .  A
O378        C383   1.270       .  A
O379        C382   1.270       .  A
O380        C392   1.271       .  A
O381        C394   1.271       .  A
C382        O387   1.269       .  A
C382        C445   1.463       .  S
C383        C449   1.455       .  S
O385        C388   1.271       .  A
O386        C388   1.269       .  A
C388        C431   1.460       .  S
O389        C394   1.269       .  A
O390        C392   1.270       .  A
C391        O393   1.268       .  A
C391        C419   1.463       .  S
C392        C427   1.460       .  S
C394        C437   1.467       .  S
Fe395       O411   2.055       .  S
Fe395       O401   2.071       .  S
Fe395       O408   2.066       .  S
Fe395       O400   2.072       .  S
Fe395       O406   1.956       .  S
Fe396       O399   2.058       .  S
Fe396       O403   2.070       .  S
Fe396       O407   2.073       .  S
Fe396       O412   2.065       .  S
Fe396       O406   1.957       .  S
Fe397       O415   2.074       .  S
Fe397       O402   2.070       .  S
Fe397       O409   2.062       .  S
Fe397       O398   2.073       .  S
Fe397       O406   1.954       .  S
O398        C405   1.270       .  A
O399        C413   1.268       .  A
O400        C405   1.270       .  A
O401        C404   1.270       .  A
O402        C414   1.270       .  A
O403        C416   1.271       .  A
C404        O409   1.269       .  A
C404        C433   1.459       .  S
C405        C439   1.468       .  S
O407        C410   1.269       .  A
O408        C410   1.268       .  A
C410        C443   1.467       .  S
O411        C416   1.268       .  A
O412        C414   1.269       .  A
C413        O415   1.271       .  A
C413        C425   1.460       .  S
C414        C421   1.463       .  S
C416        C451   1.455       .  S
C417        C549   1.472       .  S
C417        N418   1.361       .  A
C417        N422   1.361       .  A
N418        C419   1.356       .  A
C419        N420   1.355       .  A
N420        C421   1.355       .  A
C421        N422   1.355       .  A
C423        C535   1.485       .  S
C423        N424   1.361       .  A
C423        N428   1.360       .  A
N424        C425   1.355       .  A
C425        N426   1.355       .  A
N426        C427   1.356       .  A
C427        N428   1.357       .  A
C429        C518   1.490       .  S
C429        N434   1.361       .  A
N430        C431   1.356       .  A
N432        C433   1.355       .  A
C433        N434   1.358       .  A
C435        C507   1.479       .  S
C435        N440   1.364   1_545  A
N436        C437   1.357       .  A
N438        C439   1.354   1_545  A
C439        N440   1.357       .  A
C441        C490   1.482       .  S
C441        N442   1.364   1_655  A
C441       N1190   1.361       .  A
N442        C443   1.357       .  A
C443        N444   1.355       .  A
N444       C1189   1.354   1_455  A
C445       N1188   1.354       .  A
C445        N446   1.355       .  A
N446       C1185   1.361       .  A
C447        C476   1.483       .  S
C447        N448   1.360       .  A
C447       N1196   1.359       .  A
N448        C449   1.353       .  A
C449        N450   1.354       .  A
N450       C1195   1.354       .  A
C451       N1194   1.354       .  A
C451        N452   1.355       .  A
N452       C1191   1.359       .  A
Fe453       O469   2.056       .  S
Fe453      O1203   2.065       .  S
Fe453       O652   2.059       .  S
Fe453      O1388   2.057       .  S
Fe453       O650   1.973       .  S
Fe454       O647   2.066   1_545  S
Fe454       O465   2.053   1_546  S
Fe454       O464   1.981       .  S
Fe455       O659   2.061       .  S
Fe455       O460   2.055   1_556  S
Fe455       O653   2.061       .  S
Fe455       O456   2.061   1_556  S
Fe455       O836   1.978   1_455  S
O457        C471   1.265       .  A
O458      Fe1383   2.063   1_454  S
O458        C463   1.268       .  A
O459      Fe1197   2.065   1_455  S
O460        C472   1.267   1_455  A
O461       Fe640   2.066       .  S
O461        C474   1.270       .  A
C462        O467   1.268       .  A
C462        C521   1.486       .  S
C463        C504   1.483       .  S
O464       Fe639   1.971   1_545  S
O464       Fe827   1.977       .  S
O465        C468   1.265       .  A
O466       Fe639   2.056   1_554  S
O466        C468   1.267       .  A
O467       Fe641   2.062       .  S
C468        C546   1.472       .  S
O469        C474   1.269       .  A
O470       C1216   1.270       .  A
C471       O1217   1.267       .  A
C471        C479   1.481       .  S
C472       O1214   1.270       .  A
C472        C493   1.482       .  S
O473       Fe641   2.056       .  S
O473       C1215   1.267   1_455  A
C474        C532   1.483       .  S
C475        C476   1.405       .  A
C475        C480   1.395       .  A
C475        H482   1.084       .  S
C476       C1221   1.415       .  A
C477       C1220   1.415       .  A
C477        C478   1.396       .  A
C477        N484   1.429       .  S
C478       C1223   1.405   1_455  A
C478        H483   1.084       .  S
C479       C1222   1.405       .  A
C479        C480   1.413       .  A
C480        N481   1.429       .  S
N481        O485   1.262       .  A
N481        O486   1.262       .  A
N484        O488   1.262       .  A
N484        O487   1.262       .  A
C489        C490   1.404   1_455  A
C489        C494   1.398       .  A
C489        H496   1.084       .  S
C490       C1235   1.414       .  A
C491       C1234   1.414       .  A
C491        C492   1.397       .  A
C491        N498   1.429       .  S
C492       C1237   1.404       .  A
C492        H497   1.084       .  S
C493       C1236   1.404       .  A
C493        C494   1.415   1_655  A
C494        N495   1.430       .  S
N495        O499   1.262       .  A
N495        O500   1.262       .  A
N498        O502   1.262       .  A
N498        O501   1.262       .  A
C503        C504   1.405   1_545  A
C503        C508   1.400       .  A
C503        H510   1.085       .  S
C504        C505   1.412       .  A
C505        C506   1.398       .  A
C505        N512   1.427       .  S
C506        C507   1.402   1_565  A
C506        H511   1.085       .  S
C507        C508   1.412       .  A
C508        N509   1.429       .  S
N509        O513   1.262       .  A
N512        O515   1.262       .  A
C517        C522   1.399       .  A
C517        H524   1.084       .  S
C518        C519   1.415       .  A
C519        C520   1.399       .  A
C519        N526   1.429       .  S
C520        H525   1.084       .  S
C521        C522   1.413       .  A
C522        N523   1.429       .  S
N523        O527   1.262       .  A
N523        O528   1.262       .  A
N526        O530   1.262       .  A
N526        O529   1.262       .  A
C531        C532   1.405       .  A
C531        C536   1.398       .  A
C531        H538   1.085       .  S
C532        C533   1.412       .  A
C533        C534   1.398       .  A
C533        N540   1.429       .  S
C534        C535   1.407       .  A
C534        H539   1.084       .  S
C535        C536   1.414       .  A
C536        N537   1.429       .  S
N537        O541   1.262       .  A
N537        O542   1.262       .  A
N540        O544   1.262       .  A
N540        O543   1.262       .  A
C545        C546   1.400       .  A
C545        C550   1.394       .  A
C545        H552   1.092       .  S
C546        C547   1.410       .  A
C547        C548   1.397       .  A
C547        N554   1.429       .  S
C548        C549   1.403       .  A
C548        H553   1.089       .  S
C549        C550   1.411       .  A
C550        N551   1.429       .  S
N551        O555   1.262       .  A
N551        O556   1.262       .  A
N554        O558   1.262       .  A
N554        O557   1.262       .  A
Fe559       O575   2.065       .  S
Fe559       O565   2.072       .  S
Fe559       O572   2.064       .  S
Fe559       O564   2.074       .  S
Fe559       O570   1.954       .  S
Fe560       O563   2.069       .  S
Fe560       O567   2.076       .  S
Fe560       O571   2.074       .  S
Fe560       O576   2.063       .  S
Fe560       O570   1.956       .  S
Fe561       O579   2.064       .  S
Fe561       O566   2.070       .  S
Fe561       O573   2.065       .  S
Fe561       O562   2.053       .  S
Fe561       O570   1.955       .  S
O562        C569   1.267       .  A
O563        C577   1.269       .  A
O564        C569   1.271       .  A
O565        C568   1.270       .  A
O566        C578   1.271       .  A
O567        C580   1.271       .  A
C568        O573   1.269       .  A
C568        C631   1.464       .  S
C569        C635   1.456       .  S
O571        C574   1.271       .  A
O572        C574   1.270       .  A
C574        C617   1.462       .  S
O575        C580   1.269       .  A
O576        C578   1.270       .  A
C577        O579   1.267       .  A
C577        C605   1.463       .  S
C578        C613   1.459       .  S
C580        C623   1.466       .  S
Fe581       O597   2.058       .  S
Fe581       O587   2.069       .  S
Fe581       O594   2.065       .  S
Fe581       O586   2.075       .  S
Fe581       O592   1.958       .  S
Fe582       O585   2.060       .  S
Fe582       O589   2.074       .  S
Fe582       O593   2.075       .  S
Fe582       O598   2.066       .  S
Fe582       O592   1.960       .  S
Fe583       O601   2.068       .  S
Fe583       O588   2.073       .  S
Fe583       O595   2.065       .  S
Fe583       O584   2.067       .  S
Fe583       O592   1.958       .  S
O584        C591   1.269       .  A
O585        C599   1.268       .  A
O586        C591   1.271       .  A
O587        C590   1.269       .  A
O588        C600   1.271       .  A
O589        C602   1.272       .  A
C590        O595   1.269       .  A
C590        C619   1.461       .  S
C591        C625   1.466       .  S
O593        C596   1.269       .  A
O594        C596   1.268       .  A
C596        C629   1.468       .  S
O597        C602   1.269       .  A
O598        C600   1.270       .  A
C599        O601   1.270       .  A
C599        C611   1.459       .  S
C600        C607   1.465       .  S
C602        C637   1.457       .  S
C603        C735   1.474       .  S
C603        N604   1.361       .  A
C603        N608   1.362       .  A
N604        C605   1.356       .  A
C605        N606   1.355       .  A
N606        C607   1.355       .  A
C607        N608   1.356       .  A
C609        C721   1.490       .  S
C609        N610   1.361       .  A
C609        N614   1.360       .  A
N610        C611   1.355       .  A
C611        N612   1.355       .  A
N612        C613   1.356       .  A
C613        N614   1.357       .  A
C615        C704   1.492       .  S
C615        N620   1.362       .  A
N616        C617   1.357       .  A
N618        C619   1.355       .  A
C619        N620   1.359       .  A
C621        C693   1.477   1_545  S
C621        N626   1.363   1_545  A
N622        C623   1.357       .  A
N624        C625   1.353   1_545  A
C625        N626   1.354       .  A
C627        C676   1.482       .  S
C627        N628   1.365   1_655  A
C627       N1376   1.362       .  A
N628        C629   1.357       .  A
C629        N630   1.354   1_455  A
N630       C1375   1.354       .  A
C631       N1374   1.354       .  A
C631        N632   1.356       .  A
N632       C1371   1.362       .  A
C633        C662   1.485       .  S
C633        N634   1.361       .  A
C633       N1382   1.361       .  A
N634        C635   1.353       .  A
C635        N636   1.354       .  A
N636       C1381   1.354       .  A
C637       N1380   1.354       .  A
C637        N638   1.357       .  A
N638       C1377   1.361       .  A
Fe639       O655   2.058       .  S
Fe639      O1389   2.066       .  S
Fe639      O1202   2.063   1_556  S
Fe640       O651   2.053       .  S
Fe640       O650   1.981       .  S
Fe641       O646   2.053       .  S
Fe641       O642   2.058       .  S
Fe641      O1022   1.979   1_455  S
O643        C657   1.266       .  A
O644      Fe1197   2.057   1_455  S
O644        C649   1.266       .  A
O645      Fe1383   2.066   1_455  S
O646        C658   1.267   1_455  A
O647        C660   1.269       .  A
C648        O653   1.267       .  A
C648        C707   1.491       .  S
C649        C690   1.481       .  S
O650      Fe1013   1.978   1_565  S
O651        C654   1.265       .  A
O652        C654   1.267       .  A
C654        C732   1.474       .  S
O655        C660   1.270       .  A
O656       C1402   1.271       .  A
C657       O1403   1.269       .  A
C657        C665   1.486       .  S
C658       O1400   1.271       .  A
C658        C679   1.482       .  S
O659       C1401   1.269   1_455  A
C660        C718   1.488       .  S
C661        C662   1.405       .  A
C661        C666   1.396       .  A
C661        H668   1.084       .  S
C662       C1407   1.414       .  A
C663       C1406   1.414       .  A
C663        C664   1.399       .  A
C663        N670   1.429       .  S
C664       C1409   1.406   1_455  A
C664        H669   1.084       .  S
C665       C1408   1.406       .  A
C665        C666   1.414       .  A
C666        N667   1.429       .  S
N667        O671   1.262       .  A
N667        O672   1.262       .  A
N670        O674   1.262       .  A
N670        O673   1.262       .  A
C675        C676   1.404   1_455  A
C675        C680   1.398       .  A
C675        H682   1.084       .  S
C676       C1421   1.414       .  A
C677       C1420   1.414       .  A
C677        C678   1.398       .  A
C677        N684   1.429       .  S
C678       C1423   1.404       .  A
C678        H683   1.084       .  S
C679       C1422   1.404       .  A
C679        C680   1.415   1_655  A
C680        N681   1.430       .  S
N681        O685   1.262       .  A
N681        O686   1.262       .  A
N684        O688   1.262       .  A
N684        O687   1.262       .  A
C689        C690   1.406   1_545  A
C689        C694   1.399       .  A
C689        H696   1.085       .  S
C690        C691   1.412       .  A
C691        C692   1.395       .  A
C691        N698   1.427       .  S
C692        C693   1.401       .  A
C692        H697   1.085       .  S
C693        C694   1.411   1_565  A
C694        N695   1.429       .  S
N695        O699   1.262       .  A
N698        O701   1.262       .  A
C703        C708   1.400       .  A
C703        H710   1.084       .  S
C704        C705   1.416       .  A
C705        C706   1.401       .  A
C705        N712   1.429       .  S
C706        H711   1.084       .  S
C707        C708   1.415       .  A
C708        N709   1.429       .  S
N709        O713   1.262       .  A
N709        O714   1.262       .  A
N712        O716   1.262       .  A
N712        O715   1.262       .  A
C717        C718   1.406       .  A
C717        C722   1.398       .  A
C717        H724   1.084       .  S
C718        C719   1.414       .  A
C719        C720   1.398       .  A
C719        N726   1.429       .  S
C720        C721   1.407       .  A
C720        H725   1.084       .  S
C721        C722   1.416       .  A
C722        N723   1.429       .  S
N723        O727   1.262       .  A
N723        O728   1.262       .  A
N726        O730   1.262       .  A
N726        O729   1.262       .  A
C731        C732   1.401       .  A
C731        C736   1.397       .  A
C731        H738   1.073       .  S
C732        C733   1.409       .  A
C733        C734   1.398       .  A
C733        N740   1.429       .  S
C734        C735   1.404       .  A
C734        H739   1.082       .  S
C735        C736   1.410       .  A
C736        N737   1.430       .  S
N737        O741   1.262       .  A
N737        O742   1.262       .  A
N740        O744   1.262       .  A
N740        O743   1.262       .  A
Fe745       O761   2.064       .  S
Fe745       O751   2.069       .  S
Fe745       O758   2.062       .  S
Fe745       O750   2.071       .  S
Fe745       O756   1.954       .  S
Fe746       O749   2.065       .  S
Fe746       O753   2.075       .  S
Fe746       O757   2.070       .  S
Fe746       O762   2.062       .  S
Fe746       O756   1.956       .  S
Fe747       O765   2.066       .  S
Fe747       O752   2.071       .  S
Fe747       O759   2.065       .  S
Fe747       O748   2.055       .  S
Fe747       O756   1.955       .  S
O748        C755   1.267       .  A
O749        C763   1.268       .  A
O750        C755   1.271       .  A
O751        C754   1.269       .  A
O752        C764   1.271       .  A
O753        C766   1.270       .  A
C754        O759   1.268       .  A
C754        C817   1.463       .  S
C755        C821   1.456       .  S
O757        C760   1.270       .  A
O758        C760   1.269       .  A
C760        C803   1.459       .  S
O761        C766   1.269       .  A
O762        C764   1.269       .  A
C763        O765   1.268       .  A
C763        C791   1.462       .  S
C764        C799   1.459       .  S
C766        C809   1.465       .  S
Fe767       O783   2.059       .  S
Fe767       O773   2.068       .  S
Fe767       O780   2.064       .  S
Fe767       O772   2.074       .  S
Fe767       O778   1.957       .  S
Fe768       O771   2.058       .  S
Fe768       O775   2.070       .  S
Fe768       O779   2.073       .  S
Fe768       O784   2.064       .  S
Fe768       O778   1.958       .  S
Fe769       O787   2.075       .  S
Fe769       O774   2.072       .  S
Fe769       O781   2.064       .  S
Fe769       O770   2.072       .  S
Fe769       O778   1.957       .  S
O770        C777   1.270       .  A
O771        C785   1.268       .  A
O772        C777   1.270       .  A
O773        C776   1.269       .  A
O774        C786   1.270       .  A
O775        C788   1.271       .  A
C776        O781   1.269       .  A
C776        C805   1.460       .  S
C777        C811   1.468       .  S
O779        C782   1.269       .  A
O780        C782   1.268       .  A
C782        C815   1.466       .  S
O783        C788   1.269       .  A
O784        C786   1.269       .  A
C785        O787   1.271       .  A
C785        C797   1.460       .  S
C786        C793   1.464       .  S
C788        C823   1.457       .  S
C789        C921   1.474       .  S
C789        N790   1.360       .  A
C789        N794   1.362       .  A
N790        C791   1.355       .  A
C791        N792   1.354       .  A
N792        C793   1.355       .  A
C793        N794   1.356       .  A
C795        C907   1.484       .  S
C795        N796   1.361       .  A
C795        N800   1.360       .  A
N796        C797   1.355       .  A
C797        N798   1.355       .  A
N798        C799   1.356       .  A
C799        N800   1.357       .  A
C801        C890   1.489       .  S
C801       N1174   1.361       .  A
C801        N806   1.361       .  A
N802       C1173   1.361   1_545  A
N802        C803   1.356       .  A
C803       N1176   1.354   1_545  A
N804       C1175   1.355       .  A
N804        C805   1.355       .  A
C805        N806   1.358       .  A
C807        C879   1.478       .  S
C807       N1180   1.363       .  A
C807        N812   1.363       .  A
N808       C1179   1.363       .  A
N808        C809   1.357       .  A
C809       N1182   1.355       .  A
N810       C1181   1.355       .  A
N810        C811   1.354       .  A
C811        N812   1.356       .  A
C813        C862   1.481       .  S
C813        N814   1.364       .  A
N814        C815   1.357       .  A
C815        N816   1.354       .  A
C817        N818   1.355       .  A
C819        C848   1.482       .  S
C819        N820   1.360   1_455  A
N820        C821   1.354       .  A
C821        N822   1.354   1_655  A
C823        N824   1.356       .  A
Fe825       O841   2.056       .  S
Fe825      O1024   2.058       .  S
Fe825      O1022   1.973       .  S
Fe826      O1387   2.053       .  S
Fe826      O1019   2.064       .  S
Fe826       O837   2.054   1_556  S
Fe826      O1214   2.065   1_556  S
Fe826       O836   1.980       .  S
Fe827      O1031   2.060       .  S
Fe827       O832   2.053   1_556  S
Fe827      O1025   2.060       .  S
Fe827       O828   2.063   1_556  S
O828       C1207   1.269   1_545  A
O829      Fe1384   2.053   1_545  S
O829        C843   1.265       .  A
O830        C835   1.268       .  A
O831       C1206   1.270       .  A
O832        C844   1.267       .  A
O833      Fe1012   2.066       .  S
O833        C846   1.270       .  A
C834       O1203   1.270   1_545  A
C834        O839   1.268       .  A
C834        C893   1.486       .  S
C835       O1200   1.268       .  A
C835        C876   1.481       .  S
O836      Fe1011   1.972       .  S
O837        C840   1.265       .  A
O838      Fe1011   2.058   1_554  S
O838        C840   1.267       .  A
O839      Fe1013   2.062       .  S
C840        C918   1.473       .  S
O841        C846   1.269       .  A
O842      Fe1198   2.065   1_554  S
C843        C851   1.479       .  S
C844        C865   1.482       .  S
O845      Fe1013   2.059       .  S
C846        C904   1.481       .  S
C847        C848   1.405   1_655  A
C847        C852   1.397       .  A
C847        H854   1.084       .  S
C849        C850   1.397       .  A
C849        N856   1.429       .  S
C850        H855   1.085       .  S
C851        C852   1.413       .  A
C852        N853   1.430       .  S
N853        O857   1.262       .  A
N853        O858   1.262       .  A
N856        O860   1.262       .  A
N856        O859   1.262       .  A
C861        C862   1.404       .  A
C861        C866   1.398       .  A
C861        H868   1.084       .  S
C863        C864   1.397       .  A
C863        N870   1.429       .  S
C864        H869   1.084       .  S
C865        C866   1.415       .  A
C866        N867   1.430       .  S
N867        O871   1.262       .  A
N867        O872   1.262       .  A
N870        O874   1.262       .  A
N870        O873   1.262       .  A
C875        C876   1.405       .  A
C875        C880   1.399       .  A
C875        H882   1.085       .  S
C876        C877   1.412       .  A
C877        C878   1.398       .  A
C877        N884   1.427       .  S
C878        C879   1.402       .  A
C878        H883   1.085       .  S
C879        C880   1.411       .  A
C880        N881   1.429       .  S
N881        O885   1.262       .  A
N881       O1258   1.262       .  A
N884       O1260   1.262       .  A
N884        O887   1.262       .  A
O886       N1253   1.262       .  A
O888       N1256   1.262       .  A
C889       C1262   1.407   1_545  A
C889        C894   1.399       .  A
C889        H896   1.084       .  S
C890       C1261   1.406       .  A
C890        C891   1.415       .  A
C891        C892   1.400       .  A
C891        N898   1.429       .  S
C892       C1265   1.405       .  A
C892        H897   1.085       .  S
C893       C1264   1.405   1_545  A
C893        C894   1.414       .  A
C894        N895   1.429       .  S
N895        O899   1.262       .  A
N895        O900   1.262       .  A
N898        O902   1.262       .  A
N898        O901   1.262       .  A
C903        C904   1.405       .  A
C903        C908   1.398       .  A
C903        H910   1.085       .  S
C904        C905   1.411       .  A
C905        C906   1.397       .  A
C905        N912   1.428       .  S
C906        C907   1.406       .  A
C906        H911   1.084       .  S
C907        C908   1.413       .  A
C908        N909   1.429       .  S
N909        O913   1.262       .  A
N909        O914   1.262       .  A
N912        O916   1.262       .  A
N912        O915   1.262       .  A
C917        C918   1.400       .  A
C917        C922   1.395       .  A
C917        H924   1.084       .  S
C918        C919   1.409       .  A
C919        C920   1.397       .  A
C919        N926   1.428       .  S
C920        C921   1.403       .  A
C920        H925   1.086       .  S
C921        C922   1.412       .  A
C922        N923   1.429       .  S
N923        O927   1.262       .  A
N923        O928   1.262       .  A
N926        O930   1.262       .  A
N926        O929   1.262       .  A
Fe931       O947   2.059       .  S
Fe931       O937   2.069       .  S
Fe931       O944   2.063       .  S
Fe931       O936   2.067       .  S
Fe931       O942   1.955       .  S
Fe932       O935   2.067       .  S
Fe932       O939   2.078       .  S
Fe932       O943   2.073       .  S
Fe932       O948   2.064       .  S
Fe932       O942   1.958       .  S
Fe933       O951   2.066       .  S
Fe933       O938   2.068       .  S
Fe933       O945   2.063       .  S
Fe933       O934   2.054       .  S
Fe933       O942   1.958       .  S
O934        C941   1.267       .  A
O935        C949   1.268       .  A
O936        C941   1.270       .  A
O937        C940   1.270       .  A
O938        C950   1.271       .  A
O939        C952   1.271       .  A
C940        O945   1.268       .  A
C940       C1003   1.463       .  S
C941       C1007   1.455       .  S
O943        C946   1.271       .  A
O944        C946   1.269       .  A
C946        C989   1.461       .  S
O947        C952   1.268       .  A
O948        C950   1.270       .  A
C949        O951   1.268       .  A
C949        C977   1.464       .  S
C950        C985   1.459       .  S
C952        C995   1.465       .  S
Fe953       O969   2.059       .  S
Fe953       O959   2.072       .  S
Fe953       O966   2.067       .  S
Fe953       O958   2.076       .  S
Fe953       O964   1.960       .  S
Fe954       O957   2.061       .  S
Fe954       O961   2.068       .  S
Fe954       O965   2.074       .  S
Fe954       O970   2.064       .  S
Fe954       O964   1.960       .  S
Fe955       O973   2.067       .  S
Fe955       O960   2.074       .  S
Fe955       O967   2.063       .  S
Fe955       O956   2.065       .  S
Fe955       O964   1.958       .  S
O956        C963   1.268       .  A
O957        C971   1.268       .  A
O958        C963   1.271       .  A
O959        C962   1.270       .  A
O960        C972   1.271       .  A
O961        C974   1.270       .  A
C962        O967   1.269       .  A
C962        C991   1.461       .  S
C963        C997   1.467       .  S
O965        C968   1.270       .  A
O966        C968   1.269       .  A
C968       C1001   1.468       .  S
O969        C974   1.269       .  A
O970        C972   1.269       .  A
C971        O973   1.269       .  A
C971        C983   1.459       .  S
C972        C979   1.465       .  S
C974       C1009   1.457       .  S
C975       C1107   1.474       .  S
C975        N976   1.361       .  A
C975        N980   1.362       .  A
N976        C977   1.356       .  A
C977        N978   1.355       .  A
N978        C979   1.355       .  A
C979        N980   1.355       .  A
C981       C1093   1.485       .  S
C981        N982   1.360       .  A
C981        N986   1.360       .  A
N982        C983   1.356       .  A
C983        N984   1.355       .  A
N984        C985   1.355       .  A
C985        N986   1.357       .  A
C987       C1076   1.494       .  S
C987       N1360   1.363       .  A
C987        N992   1.362       .  A
N988       C1359   1.362   1_545  A
N988        C989   1.356       .  A
C989       N1362   1.355   1_545  A
N990       C1361   1.354       .  A
N990        C991   1.355       .  A
C991        N992   1.359       .  A
C993       C1065   1.475       .  S
C993       N1366   1.362       .  A
C993        N998   1.363       .  A
N994       C1365   1.363       .  A
N994        C995   1.357       .  A
C995       N1368   1.355       .  A
N996       C1367   1.355       .  A
N996        C997   1.354       .  A
C997        N998   1.355       .  A
C999       C1048   1.481       .  S
C999       N1000   1.364       .  A
N1000      C1001   1.357       .  A
C1001      N1002   1.355       .  A
C1003      N1004   1.355       .  A
C1005      C1034   1.481       .  S
C1005      N1006   1.359   1_455  A
N1006      C1007   1.353       .  A
C1007      N1008   1.355   1_655  A
C1009      N1010   1.357       .  A
Fe1011     O1027   2.062       .  S
Fe1012     O1201   2.052       .  S
Fe1012     O1023   2.055       .  S
Fe1012     O1400   2.068       .  S
Fe1012     O1022   1.980       .  S
Fe1013     O1018   2.055       .  S
Fe1013     O1014   2.060       .  S
O1014      C1393   1.267   1_545  A
O1015     Fe1198   2.050       .  S
O1015      C1029   1.265       .  A
O1016      C1021   1.267       .  A
O1017      C1392   1.270       .  A
O1018      C1030   1.267       .  A
O1019      C1032   1.269       .  A
C1020      O1389   1.269   1_545  A
C1020      O1025   1.267       .  A
C1020      C1079   1.488       .  S
C1021      O1386   1.267       .  A
C1021      C1062   1.478       .  S
O1023      C1026   1.266       .  A
O1024      C1026   1.267       .  A
C1026      C1104   1.473       .  S
O1027      C1032   1.271       .  A
O1028     Fe1384   2.066   1_545  S
C1029      C1037   1.479       .  S
C1030      C1051   1.482       .  S
C1032      C1090   1.487       .  S
C1033      C1034   1.404   1_655  A
C1033      C1038   1.395       .  A
C1033      H1040   1.084       .  S
C1035      C1036   1.398       .  A
C1035      N1042   1.429       .  S
C1036      H1041   1.085       .  S
C1037      C1038   1.413       .  A
C1038      N1039   1.430       .  S
N1039      O1043   1.262       .  A
N1039      O1044   1.262       .  A
N1042      O1046   1.262       .  A
N1042      O1045   1.262       .  A
C1047      C1048   1.404       .  A
C1047      C1052   1.398       .  A
C1047      H1054   1.084       .  S
C1049      C1050   1.397       .  A
C1049      N1056   1.429       .  S
C1050      H1055   1.084       .  S
C1051      C1052   1.414       .  A
C1052      N1053   1.430       .  S
N1053      O1057   1.262       .  A
N1053      O1058   1.262       .  A
N1056      O1060   1.262       .  A
N1056      O1059   1.262       .  A
C1061      C1062   1.405       .  A
C1061      C1066   1.399       .  A
C1061      H1068   1.085       .  S
C1062      C1063   1.411       .  A
C1063      C1064   1.395       .  A
C1063      N1070   1.427       .  S
C1064      C1065   1.401       .  A
C1064      H1069   1.085       .  S
C1065      C1066   1.411       .  A
C1066      N1067   1.429       .  S
N1067      O1071   1.262       .  A
N1067      O1444   1.262       .  A
N1070      O1446   1.262       .  A
N1070      O1073   1.262       .  A
O1072      N1439   1.262       .  A
O1074      N1442   1.261       .  A
C1075      C1448   1.407   1_545  A
C1075      C1080   1.399       .  A
C1075      H1082   1.084       .  S
C1076      C1447   1.407       .  A
C1076      C1077   1.417       .  A
C1077      C1078   1.401       .  A
C1077      N1084   1.429       .  S
C1078      C1451   1.406       .  A
C1078      H1083   1.084       .  S
C1079      C1450   1.406   1_545  A
C1079      C1080   1.414       .  A
C1080      N1081   1.429       .  S
N1081      O1085   1.262       .  A
N1081      O1086   1.262       .  A
N1084      O1088   1.262       .  A
N1084      O1087   1.262       .  A
C1089      C1090   1.406       .  A
C1089      C1094   1.399       .  A
C1089      H1096   1.085       .  S
C1090      C1091   1.415       .  A
C1091      C1092   1.398       .  A
C1091      N1098   1.429       .  S
C1092      C1093   1.404       .  A
C1092      H1097   1.085       .  S
C1093      C1094   1.414       .  A
C1094      N1095   1.429       .  S
N1095      O1099   1.262       .  A
N1095      O1100   1.262       .  A
N1098      O1102   1.261       .  A
N1098      O1101   1.262       .  A
C1103      C1104   1.400       .  A
C1103      C1108   1.395       .  A
C1103      H1110   1.088       .  S
C1104      C1105   1.410       .  A
C1105      C1106   1.397       .  A
C1105      N1112   1.429       .  S
C1106      C1107   1.403       .  A
C1106      H1111   1.087       .  S
C1107      C1108   1.411       .  A
C1108      N1109   1.429       .  S
N1109      O1113   1.262       .  A
N1109      O1114   1.262       .  A
N1112      O1116   1.262       .  A
N1112      O1115   1.262       .  A
Fe1117     O1133   2.065       .  S
Fe1117     O1123   2.069       .  S
Fe1117     O1130   2.063       .  S
Fe1117     O1122   2.071       .  S
Fe1117     O1128   1.954       .  S
Fe1118     O1121   2.067       .  S
Fe1118     O1125   2.077       .  S
Fe1118     O1129   2.072       .  S
Fe1118     O1134   2.063       .  S
Fe1118     O1128   1.955       .  S
Fe1119     O1137   2.065       .  S
Fe1119     O1124   2.072       .  S
Fe1119     O1131   2.067       .  S
Fe1119     O1120   2.053       .  S
Fe1119     O1128   1.956       .  S
O1120      C1127   1.266       .  A
O1121      C1135   1.269       .  A
O1122      C1127   1.270       .  A
O1123      C1126   1.270       .  A
O1124      C1136   1.271       .  A
O1125      C1138   1.271       .  A
C1126      O1131   1.269       .  A
C1126      C1189   1.463       .  S
C1127      C1193   1.455       .  S
O1129      C1132   1.271       .  A
O1130      C1132   1.269       .  A
C1132      C1175   1.460       .  S
O1133      C1138   1.269       .  A
O1134      C1136   1.270       .  A
C1135      O1137   1.268       .  A
C1135      C1163   1.463       .  S
C1136      C1171   1.460       .  S
C1138      C1181   1.467       .  S
Fe1139     O1155   2.055       .  S
Fe1139     O1145   2.071       .  S
Fe1139     O1152   2.066       .  S
Fe1139     O1144   2.072       .  S
Fe1139     O1150   1.956       .  S
Fe1140     O1143   2.058       .  S
Fe1140     O1147   2.070       .  S
Fe1140     O1151   2.073       .  S
Fe1140     O1156   2.065       .  S
Fe1140     O1150   1.957       .  S
Fe1141     O1159   2.074       .  S
Fe1141     O1146   2.070       .  S
Fe1141     O1153   2.062       .  S
Fe1141     O1142   2.073       .  S
Fe1141     O1150   1.954       .  S
O1142      C1149   1.270       .  A
O1143      C1157   1.268       .  A
O1144      C1149   1.270       .  A
O1145      C1148   1.270       .  A
O1146      C1158   1.270       .  A
O1147      C1160   1.271       .  A
C1148      O1153   1.269       .  A
C1148      C1177   1.459       .  S
C1149      C1183   1.468       .  S
O1151      C1154   1.269       .  A
O1152      C1154   1.268       .  A
C1154      C1187   1.467       .  S
O1155      C1160   1.268       .  A
O1156      C1158   1.269       .  A
C1157      O1159   1.271       .  A
C1157      C1169   1.460       .  S
C1158      C1165   1.463       .  S
C1160      C1195   1.455       .  S
C1161      C1293   1.472       .  S
C1161      N1162   1.361       .  A
C1161      N1166   1.361       .  A
N1162      C1163   1.356       .  A
C1163      N1164   1.355       .  A
N1164      C1165   1.355       .  A
C1165      N1166   1.355       .  A
C1167      C1279   1.486       .  S
C1167      N1168   1.361       .  A
C1167      N1172   1.360       .  A
N1168      C1169   1.355       .  A
C1169      N1170   1.355       .  A
N1170      C1171   1.356       .  A
C1171      N1172   1.357       .  A
C1173      C1262   1.490       .  S
C1173      N1178   1.361       .  A
N1174      C1175   1.356       .  A
N1176      C1177   1.355       .  A
C1177      N1178   1.358       .  A
C1179      C1251   1.479       .  S
C1179      N1184   1.364   1_545  A
N1180      C1181   1.357       .  A
N1182      C1183   1.354   1_545  A
C1183      N1184   1.357       .  A
C1185      C1234   1.482       .  S
C1185      N1186   1.364       .  A
N1186      C1187   1.357       .  A
C1187      N1188   1.355       .  A
C1189      N1190   1.355       .  A
C1191      C1220   1.483       .  S
C1191      N1192   1.360   1_455  A
N1192      C1193   1.353       .  A
C1193      N1194   1.354   1_655  A
C1195      N1196   1.355       .  A
Fe1197     O1213   2.056       .  S
Fe1197     O1396   2.059       .  S
Fe1197     O1394   1.973       .  S
Fe1198     O1391   2.066   1_545  S
Fe1198     O1209   2.053   1_546  S
Fe1198     O1208   1.981       .  S
Fe1199     O1403   2.061       .  S
Fe1199     O1204   2.055   1_556  S
Fe1199     O1397   2.061       .  S
Fe1199     O1200   2.061   1_556  S
O1201      C1215   1.265       .  A
O1202      C1207   1.268       .  A
O1204      C1216   1.267       .  A
O1205     Fe1384   2.066       .  S
O1205      C1218   1.270       .  A
C1206      O1211   1.268       .  A
C1206      C1265   1.486       .  S
C1207      C1248   1.483       .  S
O1208     Fe1383   1.972   1_545  S
O1209      C1212   1.265       .  A
O1210     Fe1383   2.056   1_554  S
O1210      C1212   1.267       .  A
O1211     Fe1385   2.062       .  S
C1212      C1290   1.472       .  S
O1213      C1218   1.269       .  A
C1215      C1223   1.481       .  S
C1216      C1237   1.482       .  S
O1217     Fe1385   2.056       .  S
C1218      C1276   1.483       .  S
C1219      C1220   1.405   1_655  A
C1219      C1224   1.395       .  A
C1219      H1226   1.084       .  S
C1221      C1222   1.396       .  A
C1221      N1228   1.429       .  S
C1222      H1227   1.084       .  S
C1223      C1224   1.413       .  A
C1224      N1225   1.429       .  S
N1225      O1229   1.262       .  A
N1225      O1230   1.262       .  A
N1228      O1232   1.262       .  A
N1228      O1231   1.262       .  A
C1233      C1234   1.404       .  A
C1233      C1238   1.398       .  A
C1233      H1240   1.084       .  S
C1235      C1236   1.397       .  A
C1235      N1242   1.429       .  S
C1236      H1241   1.084       .  S
C1237      C1238   1.415       .  A
C1238      N1239   1.430       .  S
N1239      O1243   1.262       .  A
N1239      O1244   1.262       .  A
N1242      O1246   1.262       .  A
N1242      O1245   1.262       .  A
C1247      C1248   1.405   1_545  A
C1247      C1252   1.400       .  A
C1247      H1254   1.085       .  S
C1248      C1249   1.412       .  A
C1249      C1250   1.398       .  A
C1249      N1256   1.427       .  S
C1250      C1251   1.402   1_565  A
C1250      H1255   1.085       .  S
C1251      C1252   1.412       .  A
C1252      N1253   1.429       .  S
N1253      O1257   1.262       .  A
N1256      O1259   1.262       .  A
C1261      C1266   1.399       .  A
C1261      H1268   1.084       .  S
C1262      C1263   1.415       .  A
C1263      C1264   1.399       .  A
C1263      N1270   1.429       .  S
C1264      H1269   1.084       .  S
C1265      C1266   1.413       .  A
C1266      N1267   1.429       .  S
N1267      O1271   1.262       .  A
N1267      O1272   1.262       .  A
N1270      O1274   1.262       .  A
N1270      O1273   1.262       .  A
C1275      C1276   1.405       .  A
C1275      C1280   1.398       .  A
C1275      H1282   1.085       .  S
C1276      C1277   1.412       .  A
C1277      C1278   1.398       .  A
C1277      N1284   1.429       .  S
C1278      C1279   1.407       .  A
C1278      H1283   1.084       .  S
C1279      C1280   1.414       .  A
C1280      N1281   1.429       .  S
N1281      O1285   1.262       .  A
N1281      O1286   1.262       .  A
N1284      O1288   1.262       .  A
N1284      O1287   1.262       .  A
C1289      C1290   1.399       .  A
C1289      C1294   1.394       .  A
C1289      H1296   1.092       .  S
C1290      C1291   1.410       .  A
C1291      C1292   1.397       .  A
C1291      N1298   1.429       .  S
C1292      C1293   1.403       .  A
C1292      H1297   1.089       .  S
C1293      C1294   1.411       .  A
C1294      N1295   1.429       .  S
N1295      O1299   1.262       .  A
N1295      O1300   1.262       .  A
N1298      O1302   1.262       .  A
N1298      O1301   1.262       .  A
Fe1303     O1319   2.065       .  S
Fe1303     O1309   2.072       .  S
Fe1303     O1316   2.064       .  S
Fe1303     O1308   2.074       .  S
Fe1303     O1314   1.954       .  S
Fe1304     O1307   2.069       .  S
Fe1304     O1311   2.076       .  S
Fe1304     O1315   2.074       .  S
Fe1304     O1320   2.063       .  S
Fe1304     O1314   1.956       .  S
Fe1305     O1323   2.064       .  S
Fe1305     O1310   2.070       .  S
Fe1305     O1317   2.065       .  S
Fe1305     O1306   2.053       .  S
Fe1305     O1314   1.955       .  S
O1306      C1313   1.267       .  A
O1307      C1321   1.269       .  A
O1308      C1313   1.271       .  A
O1309      C1312   1.270       .  A
O1310      C1322   1.271       .  A
O1311      C1324   1.271       .  A
C1312      O1317   1.269       .  A
C1312      C1375   1.464       .  S
C1313      C1379   1.456       .  S
O1315      C1318   1.271       .  A
O1316      C1318   1.270       .  A
C1318      C1361   1.462       .  S
O1319      C1324   1.269       .  A
O1320      C1322   1.270       .  A
C1321      O1323   1.267       .  A
C1321      C1349   1.463       .  S
C1322      C1357   1.459       .  S
C1324      C1367   1.466       .  S
Fe1325     O1341   2.058       .  S
Fe1325     O1331   2.069       .  S
Fe1325     O1338   2.065       .  S
Fe1325     O1330   2.075       .  S
Fe1325     O1336   1.958       .  S
Fe1326     O1329   2.060       .  S
Fe1326     O1333   2.074       .  S
Fe1326     O1337   2.075       .  S
Fe1326     O1342   2.066       .  S
Fe1326     O1336   1.960       .  S
Fe1327     O1345   2.068       .  S
Fe1327     O1332   2.073       .  S
Fe1327     O1339   2.065       .  S
Fe1327     O1328   2.067       .  S
Fe1327     O1336   1.958       .  S
O1328      C1335   1.269       .  A
O1329      C1343   1.268       .  A
O1330      C1335   1.271       .  A
O1331      C1334   1.269       .  A
O1332      C1344   1.271       .  A
O1333      C1346   1.272       .  A
C1334      O1339   1.269       .  A
C1334      C1363   1.461       .  S
C1335      C1369   1.466       .  S
O1337      C1340   1.269       .  A
O1338      C1340   1.268       .  A
C1340      C1373   1.468       .  S
O1341      C1346   1.269       .  A
O1342      C1344   1.270       .  A
C1343      O1345   1.270       .  A
C1343      C1355   1.459       .  S
C1344      C1351   1.465       .  S
C1346      C1381   1.457       .  S
C1347      C1479   1.474       .  S
C1347      N1348   1.361       .  A
C1347      N1352   1.362       .  A
N1348      C1349   1.356       .  A
C1349      N1350   1.355       .  A
N1350      C1351   1.355       .  A
C1351      N1352   1.356       .  A
C1353      C1465   1.490       .  S
C1353      N1354   1.360       .  A
C1353      N1358   1.360       .  A
N1354      C1355   1.355       .  A
C1355      N1356   1.355       .  A
N1356      C1357   1.356       .  A
C1357      N1358   1.357       .  A
C1359      C1448   1.492       .  S
C1359      N1364   1.362       .  A
N1360      C1361   1.357       .  A
N1362      C1363   1.355       .  A
C1363      N1364   1.359       .  A
C1365      C1437   1.477   1_545  S
C1365      N1370   1.363   1_545  A
N1366      C1367   1.357       .  A
N1368      C1369   1.353   1_545  A
C1369      N1370   1.354       .  A
C1371      C1420   1.482       .  S
C1371      N1372   1.365       .  A
N1372      C1373   1.357       .  A
C1373      N1374   1.354       .  A
C1375      N1376   1.356       .  A
C1377      C1406   1.485       .  S
C1377      N1378   1.361   1_455  A
N1378      C1379   1.353       .  A
C1379      N1380   1.354   1_655  A
C1381      N1382   1.357       .  A
Fe1383     O1399   2.058       .  S
Fe1384     O1395   2.053       .  S
Fe1384     O1394   1.981       .  S
Fe1385     O1390   2.053       .  S
Fe1385     O1386   2.058       .  S
O1387      C1401   1.266       .  A
O1388      C1393   1.266       .  A
O1390      C1402   1.267       .  A
O1391      C1404   1.269       .  A
C1392      O1397   1.267       .  A
C1392      C1451   1.491       .  S
C1393      C1434   1.481       .  S
O1395      C1398   1.265       .  A
O1396      C1398   1.267       .  A
C1398      C1476   1.473       .  S
O1399      C1404   1.270       .  A
C1401      C1409   1.486       .  S
C1402      C1423   1.482       .  S
C1404      C1462   1.488       .  S
C1405      C1406   1.405   1_655  A
C1405      C1410   1.396       .  A
C1405      H1412   1.084       .  S
C1407      C1408   1.399       .  A
C1407      N1414   1.429       .  S
C1408      H1413   1.084       .  S
C1409      C1410   1.414       .  A
C1410      N1411   1.429       .  S
N1411      O1415   1.262       .  A
N1411      O1416   1.262       .  A
N1414      O1418   1.262       .  A
N1414      O1417   1.262       .  A
C1419      C1420   1.404       .  A
C1419      C1424   1.398       .  A
C1419      H1426   1.084       .  S
C1421      C1422   1.398       .  A
C1421      N1428   1.429       .  S
C1422      H1427   1.084       .  S
C1423      C1424   1.414       .  A
C1424      N1425   1.430       .  S
N1425      O1429   1.262       .  A
N1425      O1430   1.262       .  A
N1428      O1432   1.262       .  A
N1428      O1431   1.262       .  A
C1433      C1434   1.406   1_545  A
C1433      C1438   1.399       .  A
C1433      H1440   1.085       .  S
C1434      C1435   1.412       .  A
C1435      C1436   1.395       .  A
C1435      N1442   1.427       .  S
C1436      C1437   1.401       .  A
C1436      H1441   1.085       .  S
C1437      C1438   1.411   1_565  A
C1438      N1439   1.429       .  S
N1439      O1443   1.262       .  A
N1442      O1445   1.262       .  A
C1447      C1452   1.400       .  A
C1447      H1454   1.084       .  S
C1448      C1449   1.416       .  A
C1449      C1450   1.401       .  A
C1449      N1456   1.429       .  S
C1450      H1455   1.084       .  S
C1451      C1452   1.415       .  A
C1452      N1453   1.429       .  S
N1453      O1457   1.262       .  A
N1453      O1458   1.262       .  A
N1456      O1460   1.262       .  A
N1456      O1459   1.262       .  A
C1461      C1462   1.406       .  A
C1461      C1466   1.398       .  A
C1461      H1468   1.084       .  S
C1462      C1463   1.414       .  A
C1463      C1464   1.398       .  A
C1463      N1470   1.429       .  S
C1464      C1465   1.407       .  A
C1464      H1469   1.084       .  S
C1465      C1466   1.416       .  A
C1466      N1467   1.429       .  S
N1467      O1471   1.262       .  A
N1467      O1472   1.262       .  A
N1470      O1474   1.262       .  A
N1470      O1473   1.262       .  A
C1475      C1476   1.401       .  A
C1475      C1480   1.397       .  A
C1475      H1482   1.072       .  S
C1476      C1477   1.409       .  A
C1477      C1478   1.398       .  A
C1477      N1484   1.429       .  S
C1478      C1479   1.404       .  A
C1478      H1483   1.082       .  S
C1479      C1480   1.410       .  A
C1480      N1481   1.430       .  S
N1481      O1485   1.262       .  A
N1481      O1486   1.262       .  A
N1484      O1488   1.262       .  A
N1484      O1487   1.262       .  A
