geometry optimzed in LAMMPS
_audit_creation_date              2020-11-30 
_audit_creation_method            'lammps2cif' 
_symmetry_space_group_name_H-M    'P1' 
_symmetry_Int_Tables_number       1 
_symmetry_cell_setting            triclinic 
loop_ 
_symmetry_equiv_pos_as_xyz 
  x,y,z 
_cell_length_a                    36.58796085 
_cell_length_b                    36.69856453688465 
_cell_length_c                    51.272047039227616 
_cell_angle_alpha                 92.35914844877904 
_cell_angle_beta                  91.44392171064747 
_cell_angle_gamma                 121.61383465932118 
loop_ 
_atom_site_label 
_atom_site_type_symbol 
_atom_site_fract_x 
_atom_site_fract_y 
_atom_site_fract_z 
_atom_site_charge 
C1          C  0.00732959  0.00510475  0.77631684     0.45100
H2          H  0.00910190  0.00730480  0.79804393    -0.03900
C3          C  0.51400429  0.50820247  0.72855972     0.45100
H4          H  0.51191607  0.50710266  0.70684549    -0.03900
C5          C  0.04486757  0.00175920  0.76468361    -0.17600
C6          C  0.47549296  0.47032763  0.76712877    -0.17400
C7          C  0.01064153  0.04567215  0.76467371    -0.17800
C8          C  0.05316551  0.50606437  0.73926237    -0.17700
C9          C  0.47275418  0.46999943  0.73993765    -0.17300
C10         C  0.50947302  0.04312844  0.73770143    -0.17600
O11         O  0.33143970  0.21632764  0.95440538    -0.81300
O12         O  0.32416655  0.08027893  0.00818174    -0.65900
O13         O  0.32325276  0.14533527  0.98042916    -1.12600
C14         C  0.22249907  0.14148344  0.03828210     1.05600
O15         O  0.30776329  0.07733271  0.04923778    -0.79200
O16         O  0.23663108  0.05510014  0.01736781    -0.66700
Ni17       Ni  0.35855183  0.18280810  0.95477943     1.34900
C18         C  0.22560054  0.06051207  0.99476260     0.84400
O19         O  0.40185709  0.14784154  0.99512441    -0.79700
O20         O  0.38871247  0.15277303  0.95294969    -0.90000
C21         C  0.31554617  0.06120972  0.02953592     0.83900
O22         O  0.40540063  0.22655230  0.97723718    -0.68200
O23         O  0.22598104  0.11203838  0.04810313    -0.87500
C24         C  0.40991759  0.23168794  0.00197752     0.84800
C25         C  0.41222983  0.15176005  0.97140231     1.06300
H26         H  0.31675250  0.16588367  0.04000026     0.38100
O27         O  0.30483667  0.14131450  0.02761140    -1.10100
O28         O  0.23780982  0.09742367  0.98678917    -0.66800
Ni29       Ni  0.28294933  0.15509056  0.99843517     1.26300
O30         O  0.38344872  0.20415390  0.01687699    -0.67000
O31         O  0.24360238  0.16243370  0.01899806    -0.79300
C32         C  0.29276428  0.20692279  0.95658752     0.84200
O33         O  0.26597232  0.17497226  0.96894954    -0.66500
Ni34       Ni  0.26718876  0.09489363  0.04712244     1.27400
Ni35       Ni  0.35256272  0.14285466  0.01144333     1.26100
H36         H  0.30783766  0.11702468  0.97168195     0.38700
C37         C  0.29608495  0.28884767  0.91469280     0.79900
N38         N  0.30258809  0.25861799  0.92436955    -0.78500
C39         C  0.28045725  0.23580934  0.94483083     0.82300
N40         N  0.25151209  0.24391646  0.95593853    -0.78400
C41         C  0.24533677  0.27491703  0.94668107     0.82400
N42         N  0.26801337  0.29722332  0.92626023    -0.80100
O43         O  0.07541770  0.29866489  0.04540228    -0.81300
O44         O  0.18386112  0.26193865  0.97047763    -0.65900
O45         O  0.14620423  0.29969297  0.02848700    -1.12600
C46         C  0.16441595  0.40943891  0.97377421     1.05600
O47         O  0.23220511  0.32890514  0.96132568    -0.79200
O48         O  0.24098777  0.40297831  0.98473423    -0.66700
Ni49       Ni  0.09877227  0.26280323  0.04783145     1.34900
C50         C  0.24014096  0.40650825  0.00939860     0.84400
O51         O  0.16546279  0.23694026  0.01962856    -0.79700
O52         O  0.12057806  0.22580872  0.05203594    -0.90000
C53         C  0.21855919  0.28883741  0.96014081     0.83900
O54         O  0.06047214  0.22683405  0.01914275    -0.68200
O55         O  0.17288967  0.39008612  0.95586609    -0.87500
C56         C  0.06693018  0.21991197  0.99577221     0.84800
C57         C  0.14717449  0.21915872  0.04036157     1.06300
H58         H  0.13104732  0.30695625  0.97114267     0.38100
O59         O  0.15743603  0.32113475  0.98195052    -1.10100
O60         O  0.20906645  0.37950365  0.02213376    -0.66800
Ni61       Ni  0.14902288  0.34723551  0.01251429     1.26300
O62         O  0.10432370  0.23624483  0.98689735    -0.67000
O63         O  0.15506634  0.39646294  0.99667759    -0.79300
C64         C  0.06380515  0.30686346  0.02399114     0.84200
O65         O  0.08752141  0.31672773  0.00457871    -0.66500
Ni66       Ni  0.20085081  0.35824054  0.95958108     1.27400
Ni67       Ni  0.16228157  0.27851954  0.99974843     1.26100
H68         H  0.17016084  0.31138652  0.04124004     0.38700
C69         C  0.15586451  0.15096415  0.08809742     0.79900
N70         N  0.14480308  0.17659053  0.07642335    -0.78500
C71         C  0.15790019  0.19004938  0.05217846     0.82300
N72         N  0.18277846  0.17833859  0.03968587    -0.78400
C73         C  0.19360478  0.15231782  0.05102793     0.82400
N74         N  0.18016146  0.13872587  0.07529152    -0.80100
C75         C  0.16902014  0.99229527  0.93403396     0.79900
N76         N  0.18949286  0.02712540  0.95140077    -0.78500
C77         C  0.19906290  0.02244660  0.97646383     0.82300
N78         N  0.18785471  0.98277625  0.98372502    -0.78400
C79         C  0.16900177  0.45041464  0.96815791     0.82400
N80         N  0.16116606  0.45669021  0.94338098    -0.80100
C81         C  0.47864377  0.31615953  0.05181403     0.79900
N82         N  0.44376291  0.28755645  0.03653621    -0.78500
C83         C  0.44835463  0.26927065  0.01437916     0.82300
N84         N  0.48828583  0.27802420  0.00828107    -0.78400
C85         C  0.02376609  0.30697765  0.02386392     0.82400
N86         N  0.01835652  0.32563531  0.04548797    -0.80100
C87         C  0.00431731  0.16981300  0.93370470     0.79900
N88         N  0.46342653  0.15611972  0.94013621    -0.78500
C89         C  0.45512791  0.16025948  0.96536396     0.82300
N90         N  0.98848862  0.17958068  0.98403321    -0.78400
C91         C  0.02954792  0.19385046  0.97730702     0.82400
N92         N  0.03698757  0.18890186  0.95212999    -0.80100
C93         C  0.30643701  0.47042415  0.06698281     0.79900
N94         N  0.28363962  0.43745542  0.04907202    -0.78500
C95         C  0.27458243  0.44396731  0.02460253     0.82300
N96         N  0.28715014  0.48453589  0.01802866    -0.78400
C97         C  0.31175778  0.01964804  0.03317766     0.82400
N98         N  0.31960143  0.01236262  0.05800879    -0.80100
O99         O  0.30154788  0.11578065  0.54889470    -0.81300
O100        O  0.43172306  0.22363972  0.46674357    -0.65900
O101        O  0.36838980  0.18340549  0.52786226    -1.12600
C102        C  0.26601367  0.19468677  0.47555895     1.05600
O103        O  0.41630409  0.27448921  0.46596725    -0.79200
O104        O  0.34649658  0.27498184  0.48763329    -0.66700
Ni105      Ni  0.35902289  0.13233551  0.54221571     1.34900
C106        C  0.34574390  0.27467856  0.51237961     0.84400
O107        O  0.44862786  0.20242488  0.51268012    -0.79700
O108        O  0.41721728  0.14683755  0.53831015    -0.90000
C109        C  0.44158107  0.26114469  0.46119618     0.83900
O110        O  0.33938364  0.09657296  0.51004284    -0.68200
O111        O  0.29298704  0.20525341  0.45774920    -0.87500
C112        C  0.35152933  0.10475261  0.48682796     0.84800
C113        C  0.45019273  0.17735445  0.52850125     1.06300
H114        H  0.33214569  0.16867898  0.47241157     0.38100
O115        O  0.34842048  0.19503881  0.48319793    -1.10100
O116        O  0.35185979  0.24848645  0.52443575    -0.66800
Ni117      Ni  0.32006740  0.18736649  0.51518181     1.26300
O118        O  0.37872172  0.14273594  0.48060159    -0.67000
O119        O  0.27375790  0.19125113  0.49955401    -0.79300
C120        C  0.27314698  0.10651943  0.53095121     0.84200
O121        O  0.28347397  0.12580511  0.50973039    -0.66500
Ni122      Ni  0.35398985  0.23900147  0.46233893     1.27400
Ni123      Ni  0.39944730  0.19977082  0.49700217     1.26100
H124        H  0.38447684  0.20619250  0.54118864     0.38700
C125        C  0.32391584  0.33084409  0.56655575     0.79900
N126        N  0.33989732  0.30990167  0.55303335    -0.78500
C127        C  0.33234474  0.30170465  0.52677229     0.82300
N128        N  0.30802367  0.31446760  0.51412671    -0.78400
C129        C  0.29070070  0.33450070  0.52739228     0.82400
N130        N  0.29870306  0.34257386  0.55377682    -0.80100
O131        O  0.27605732  0.42811223  0.46499767    -0.81300
O132        O  0.13985846  0.28099120  0.52749692    -0.65900
O133        O  0.19593545  0.35420291  0.47230190    -1.12600
C134        C  0.16770289  0.44897839  0.52058615     1.05600
O135        O  0.08950667  0.29661878  0.52263019    -0.79200
O136        O  0.08904422  0.35616752  0.49711426    -0.66700
Ni137      Ni  0.24864324  0.36590054  0.45973749     1.34900
C138        C  0.09708496  0.35818103  0.47317629     0.84400
O139        O  0.17250802  0.27216016  0.48312646    -0.79700
O140        O  0.22425933  0.30493367  0.45395263    -0.90000
C141        C  0.10137584  0.27159739  0.52967037     0.83900
O142        O  0.27627705  0.36277990  0.49098373    -0.68200
O143        O  0.14377723  0.41744810  0.53415176    -0.87500
C144        C  0.26242025  0.34533572  0.51237535     0.84800
C145        C  0.19643369  0.27207734  0.46557963     1.06300
H146        H  0.19182397  0.37932586  0.52907010     0.38100
O147        O  0.16990484  0.36593444  0.51498774    -1.10100
O148        O  0.13547336  0.37447785  0.46562180    -0.66800
Ni149      Ni  0.19118909  0.40031930  0.48583799     1.26300
O150        O  0.22447437  0.33299988  0.51957806    -0.67000
O151        O  0.18567976  0.44609739  0.50034550    -0.79300
C152        C  0.26046495  0.45090906  0.45873860     0.84200
O153        O  0.22017343  0.43562583  0.45814715    -0.66500
Ni154      Ni  0.11850109  0.35722389  0.52837971     1.27400
Ni155      Ni  0.17085736  0.31794497  0.50009571     1.26100
H156        H  0.17574015  0.34061050  0.45738640     0.38700
C157        C  0.17313751  0.53113772  0.56581382     0.79900
N158        N  0.15941901  0.49314166  0.55279187    -0.78500
C159        C  0.17654528  0.49095319  0.53016653     0.82300
N160        N  0.20814526  0.52750815  0.52032763    -0.78400
C161        C  0.22928287  0.07299001  0.53622013     0.82400
N162        N  0.21424558  0.07583384  0.55984885    -0.80100
C163        C  0.53495286  0.18447029  0.57236150     0.79900
N164        N  0.49588994  0.17019005  0.56037669    -0.78500
C165        C  0.49229108  0.18595455  0.53775998     0.82300
N166        N  0.52812422  0.21684962  0.52733348    -0.78400
C167        C  0.06694299  0.23065338  0.53824531     0.82400
N168        N  0.07079688  0.21521772  0.56118647    -0.80100
C169        C  0.52258562  0.32645336  0.41385396     0.79900
N170        N  0.05886058  0.34570305  0.42891292    -0.78500
C171        C  0.05802355  0.33767998  0.45479539     0.82300
N172        N  0.52032076  0.31037065  0.46511171    -0.78400
C173        C  0.48329113  0.29024911  0.44986940     0.82400
N174        N  0.48465521  0.29877803  0.42436050    -0.80100
C175        C  0.16972736  0.16755463  0.43678226     0.79900
N176        N  0.19999713  0.16285177  0.44914308    -0.78500
C177        C  0.22668479  0.19226862  0.46807797     0.82300
N178        N  0.22468009  0.22745430  0.47349254    -0.78400
C179        C  0.19516436  0.23260849  0.46067490     0.82400
N180        N  0.16767556  0.20284943  0.44217099    -0.80100
C181        C  0.33124711  0.54481167  0.42157808     0.79900
N182        N  0.34266645  0.07635086  0.44070351    -0.78500
C183        C  0.33239192  0.06871002  0.46616556     0.82300
N184        N  0.30451874  0.52876379  0.47126591    -0.78400
C185        C  0.28989858  0.49581967  0.45264680     0.82400
N186        N  0.30369662  0.50415829  0.42819558    -0.80100
C187        C  0.47691968  0.46663077  0.27314315     0.45100
H188        H  0.47470946  0.45888972  0.29378609    -0.03900
C189        C  0.48923564  0.48824778  0.22561743     0.45100
H190        H  0.49552651  0.49635836  0.20507079    -0.03900
C191        C  0.00535198  0.01021190  0.27122375    -0.17600
C192        C  0.47638190  0.43129118  0.25423547    -0.17400
C193        C  0.44206774  0.47581075  0.26212733    -0.17800
C194        C  0.01299493  0.02313857  0.24604674    -0.17700
C195        C  0.48342824  0.44395535  0.22886232    -0.17300
C196        C  0.44674902  0.48320079  0.23543238    -0.17600
C197        C  0.34621188  0.55042150  0.39429543     0.01000
C198        C  0.31583791  0.52677040  0.37315866     0.03800
C199        C  0.32917177  0.51876161  0.34912015    -0.12300
C200        C  0.37313206  0.53546427  0.34557960     0.23100
C201        C  0.38968814  0.06575527  0.36169413    -0.12800
C202        C  0.37950780  0.07090990  0.38738402     0.04500
C203        C  0.38661855  0.51854276  0.32304115     0.26900
C204        C  0.39429191  0.48556551  0.32687825    -0.13500
C205        C  0.40555542  0.46781081  0.30598609     0.05000
C206        C  0.41591572  0.48648885  0.28118916    -0.09500
C207        C  0.39362913  0.02278078  0.27572933     0.05800
C208        C  0.37749313  0.03821204  0.29552699    -0.13900
Br209      Br  0.44873675  0.09219017  0.35343667    -0.05900
Br210      Br  0.25542326  0.50412532  0.37727994    -0.00300
Br211      Br  0.39920608  0.41392474  0.31226303     0.00200
Br212      Br  0.37035733  0.08612990  0.29047266    -0.04300
Br213      Br  0.42558672  0.10254808  0.41383885     0.00200
Br214      Br  0.28694988  0.48194921  0.32173202    -0.03600
Br215      Br  0.38942924  0.46464031  0.36156175    -0.04400
Br216      Br  0.40900739  0.05458948  0.24492895    -0.00400
C217        C  0.14648357  0.14028470  0.41370703     0.01000
C218        C  0.10204461  0.11094691  0.41391483     0.03800
C219        C  0.07963799  0.08671122  0.39091798    -0.12300
C220        C  0.10185668  0.09335375  0.36785307     0.23100
C221        C  0.14627636  0.12280272  0.36768665    -0.12800
C222        C  0.16880691  0.14607245  0.39078772     0.04500
C223        C  0.07807001  0.07242310  0.34314254     0.26900
C224        C  0.07804239  0.03687104  0.33224314    -0.13500
C225        C  0.05669440  0.01836143  0.30784880     0.05000
C226        C  0.03341985  0.03397398  0.29496504    -0.09500
C227        C  0.03160294  0.06792568  0.30739054     0.05800
C228        C  0.05639707  0.08911249  0.33033565    -0.13900
Br229      Br  0.17553268  0.13289664  0.33545256    -0.05900
Br230      Br  0.07207683  0.10515764  0.44538363    -0.00300
Br231      Br  0.07252498  0.46974467  0.29604626     0.00200
Br232      Br  0.06106051  0.14125363  0.34440453    -0.04300
Br233      Br  0.22964244  0.18806371  0.39052031     0.00200
Br234      Br  0.01856058  0.04570763  0.39063195    -0.03600
Br235      Br  0.10760640  0.01413540  0.35098655    -0.04400
Br236      Br  0.99018441  0.08126562  0.29678972    -0.00400
C237        C  0.47218512  0.39042766  0.26444454     0.01000
C238        C  0.00735403  0.38427773  0.26574814     0.03800
C239        C  0.01456333  0.36668374  0.28799735    -0.12300
C240        C  0.48564892  0.35283778  0.30806076     0.23100
C241        C  0.44488243  0.34644631  0.30237316    -0.12800
C242        C  0.43771968  0.36369010  0.28002542     0.04500
C243        C  0.49797356  0.34659063  0.33484776     0.26900
C244        C  0.99669469  0.30836467  0.34010745    -0.13500
C245        C  0.00786986  0.30315442  0.36569842     0.05000
C246        C  0.52096024  0.33616728  0.38613493    -0.09500
C247        C  0.52176547  0.37380925  0.38046109     0.05800
C248        C  0.50968349  0.37869736  0.35511493    -0.13900
Br249      Br  0.39902107  0.31307328  0.32495275    -0.05900
Br250      Br  0.04675747  0.39923365  0.23866419    -0.00300
Br251      Br  0.00656673  0.25147294  0.37334172     0.00200
Br252      Br  0.50605069  0.42818600  0.34878702    -0.04300
Br253      Br  0.37943414  0.34009202  0.26719407     0.00200
Br254      Br  0.06694238  0.36630944  0.29281916    -0.03600
Br255      Br  0.97818684  0.26300803  0.31315251    -0.04400
Br256      Br  0.53666909  0.41759293  0.40797319    -0.00400
C257        C  0.31189793  0.46099378  0.09426264     0.01000
C258        C  0.32455670  0.43128975  0.09915209     0.03800
C259        C  0.33024992  0.42299627  0.12503568    -0.12300
C260        C  0.32770602  0.44728026  0.14603978     0.23100
C261        C  0.30172654  0.97352639  0.13931223    -0.12800
C262        C  0.29651812  0.98096368  0.11313736     0.04500
C263        C  0.35526520  0.45623492  0.17007160     0.26900
C264        C  0.33931689  0.43572851  0.19330236    -0.13500
C265        C  0.36754669  0.44549414  0.21560139     0.05000
C266        C  0.41248856  0.47709266  0.21480953    -0.09500
C267        C  0.41362366  0.00087377  0.19184064     0.05800
C268        C  0.38667125  0.98938024  0.16941149    -0.13900
Br269      Br  0.29261458  0.00376497  0.16758839    -0.05900
Br270      Br  0.33917091  0.40538580  0.07099105    -0.00300
Br271      Br  0.34235840  0.41308441  0.24571211     0.00200
Br272      Br  0.40915764  0.01932866  0.13760417    -0.04300
Br273      Br  0.27301442  0.01608526  0.10581764     0.00200
Br274      Br  0.34592544  0.38163989  0.13218012    -0.03600
Br275      Br  0.27881248  0.39310006  0.19375613    -0.04400
Br276      Br  0.46601277  0.05413656  0.19069877    -0.00400
C277        C  0.48107174  0.41776722  0.20469972     0.01000
C278        C  0.44121352  0.38299927  0.19393634     0.03800
C279        C  0.43876774  0.36129800  0.17011944    -0.12300
C280        C  0.47496544  0.37713970  0.15525159     0.23100
C281        C  0.01428338  0.41187726  0.16495633    -0.12800
C282        C  0.01724002  0.43213198  0.18936097     0.04500
C283        C  0.47145177  0.35854267  0.12872917     0.26900
C284        C  0.47982699  0.32552857  0.12501374    -0.13500
C285        C  0.48056412  0.31056014  0.09960805     0.05000
C286        C  0.47331884  0.32902112  0.07801990    -0.09500
C287        C  0.96428325  0.36183085  0.08159277     0.05800
C288        C  0.96352468  0.37677717  0.10705991    -0.13900
Br289      Br  0.06438075  0.43162829  0.14443747    -0.05900
Br290      Br  0.38814138  0.36943832  0.20772213    -0.00300
Br291      Br  0.49172141  0.26487787  0.09443500     0.00200
Br292      Br  0.95499868  0.42409359  0.11249013    -0.04300
Br293      Br  0.07223993  0.47937978  0.20086957     0.00200
Br294      Br  0.38563324  0.31029526  0.15719910    -0.03600
Br295      Br  0.49272408  0.30280983  0.15479138    -0.04400
Br296      Br  0.95472730  0.38683291  0.05181091    -0.00400
C297        C  0.05228493  0.06481479  0.23713664     0.01000
C298        C  0.09159643  0.06748797  0.23245067     0.03800
C299        C  0.11328134  0.08515221  0.20947819    -0.12300
C300        C  0.09898916  0.10533957  0.19301774     0.23100
C301        C  0.06945817  0.11524145  0.20250590    -0.12800
C302        C  0.04760357  0.09651522  0.22520059     0.04500
C303        C  0.11519649  0.11678524  0.16630920     0.26900
C304        C  0.15089421  0.15764817  0.16207658    -0.13500
C305        C  0.16499078  0.16828741  0.13657102     0.05000
C306        C  0.14311335  0.13840678  0.11507719    -0.09500
C307        C  0.10754161  0.09753615  0.11932374     0.05800
C308        C  0.09348138  0.08684705  0.14481598    -0.13900
Br309      Br  0.05894508  0.15416989  0.18413169    -0.05900
Br310      Br  0.12167605  0.05722253  0.25930774    -0.00300
Br311      Br  0.21470489  0.22370920  0.13102869     0.00200
Br312      Br  0.04319622  0.03174625  0.15026695    -0.04300
Br313      Br  0.52016419  0.12250960  0.24171407     0.00200
Br314      Br  0.16245302  0.08201775  0.20048490    -0.03600
Br315      Br  0.17933654  0.19948517  0.19114706    -0.04400
Br316      Br  0.07736251  0.05666006  0.09003482    -0.00400
C317        C  0.44324649  0.43693055  0.78555969     0.01000
C318        C  0.39834555  0.42213477  0.78617362     0.03800
C319        C  0.37385110  0.39888992  0.80737029    -0.12300
C320        C  0.39235099  0.38792946  0.82762056     0.23100
C321        C  0.43469890  0.39808772  0.82580859    -0.12800
C322        C  0.45896781  0.42081291  0.80478243     0.04500
C323        C  0.36661398  0.36257915  0.84979020     0.26900
C324        C  0.37001694  0.38332741  0.87435001    -0.13500
C325        C  0.34773472  0.35923524  0.89561164     0.05000
C326        C  0.32093402  0.31407636  0.89245271    -0.09500
C327        C  0.31795598  0.29329840  0.86794211     0.05800
C328        C  0.34112048  0.31736607  0.84689356    -0.13900
Br329      Br  0.45858776  0.37827524  0.85182082    -0.05900
Br330      Br  0.36709579  0.43023640  0.75864969    -0.00300
Br331      Br  0.35633580  0.38801992  0.92961398     0.00200
Br332      Br  0.33911631  0.28840209  0.81413151    -0.04300
Br333      Br  0.50876114  0.41873287  0.79940283     0.00200
Br334      Br  0.31419685  0.38148603  0.80912434    -0.03600
Br335      Br  0.40619880  0.44491825  0.87894481    -0.04400
Br336      Br  0.28103085  0.23181446  0.86280915    -0.00400
C337        C  0.01355231  0.16420486  0.90682426     0.01000
C338        C  0.03081696  0.13845473  0.90143694     0.03800
C339        C  0.03791407  0.13107043  0.87562457    -0.12300
C340        C  0.02688007  0.14865631  0.85526009     0.23100
C341        C  0.51121234  0.17603083  0.86045788    -0.12800
C342        C  0.50472822  0.18414611  0.88637376     0.04500
C343        C  0.01995200  0.12877906  0.82876657     0.26900
C344        C  0.05165116  0.14633253  0.81054848    -0.13500
C345        C  0.04578456  0.12326453  0.78655160     0.05000
C346        C  0.01084056  0.07976657  0.78258930    -0.09500
C347        C  0.47540824  0.06499380  0.79953356     0.05800
C348        C  0.47997268  0.08923123  0.82244822    -0.13900
Br349      Br  0.49730316  0.20042824  0.83209472    -0.05900
Br350      Br  0.04029656  0.10938368  0.92895178    -0.00300
Br351      Br  0.08527134  0.15465300  0.76056603     0.00200
Br352      Br  0.43373903  0.06877331  0.84621239    -0.04300
Br353      Br  0.48311884  0.22120035  0.89391676     0.00200
Br354      Br  0.05890985  0.09356029  0.86772616    -0.03600
Br355      Br  0.10401707  0.20073894  0.81948695    -0.04400
Br356      Br  0.41967229  0.01718483  0.78991766    -0.00400
C357        C  0.07848962  0.00297188  0.78295252     0.01000
C358        C  0.10041339  0.03759096  0.80201643     0.03800
C359        C  0.12138740  0.03443389  0.82411933    -0.12300
C360        C  0.11920525  0.99593415  0.82805406     0.23100
C361        C  0.12025540  0.47748998  0.80973350    -0.12800
C362        C  0.10173309  0.48023220  0.78593596     0.04500
C363        C  0.13054002  0.98950358  0.85454419     0.26900
C364        C  0.17229688  0.99868861  0.86090177    -0.13500
C365        C  0.18589317  0.00200455  0.88724769     0.05000
C366        C  0.15744732  0.99537700  0.90707628    -0.09500
C367        C  0.11516672  0.98439762  0.90063907     0.05800
C368        C  0.10193005  0.98222834  0.87444700    -0.13900
Br369      Br  0.12080243  0.42650681  0.81662984    -0.05900
Br370      Br  0.10893419  0.09233008  0.79631056    -0.00300
Br371      Br  0.24335849  0.01560284  0.89628846     0.00200
Br372      Br  0.05912883  0.48929806  0.86424323    -0.04300
Br373      Br  0.08703687  0.43703881  0.75826817     0.00200
Br374      Br  0.15196926  0.08226485  0.84990116    -0.03600
Br375      Br  0.21107162  0.00826953  0.83355536    -0.04400
Br376      Br  0.08129106  0.48498334  0.92705318    -0.00400
C377        C  0.43553516  0.43880631  0.72092230     0.01000
C378        C  0.41785360  0.45531284  0.70348687     0.03800
C379        C  0.39408461  0.43198417  0.68044914    -0.12300
C380        C  0.38821708  0.39179973  0.67388581     0.23100
C381        C  0.40069743  0.37247278  0.69243141    -0.12800
C382        C  0.42142068  0.39471540  0.71676206     0.04500
C383        C  0.37150585  0.37228075  0.64681809     0.26900
C384        C  0.32739758  0.34192409  0.64115731    -0.13500
C385        C  0.31130194  0.32820918  0.61492229     0.05000
C386        C  0.33912244  0.34554143  0.59426569    -0.09500
C387        C  0.38297675  0.37643832  0.60000859     0.05800
C388        C  0.39915761  0.38923177  0.62609350    -0.13900
Br389      Br  0.39290736  0.31726686  0.68342453    -0.05900
Br390      Br  0.41939630  0.50678141  0.71260049    -0.00300
Br391      Br  0.25140378  0.28566600  0.60726431     0.00200
Br392      Br  0.45920602  0.43173848  0.63351113    -0.04300
Br393      Br  0.42918451  0.36360828  0.74350647     0.00200
Br394      Br  0.37071013  0.45573445  0.65699018    -0.03600
Br395      Br  0.28899599  0.32073651  0.66934178    -0.04400
Br396      Br  0.42060142  0.40357672  0.57196866    -0.00400
C397        C  0.53586842  0.17036945  0.59881322     0.01000
C398        C  0.51247123  0.12607096  0.60286335     0.03800
C399        C  0.50725753  0.11208032  0.62833017    -0.12300
C400        C  0.52585799  0.14209709  0.64991822     0.23100
C401        C  0.04996287  0.18687266  0.64578962    -0.12800
C402        C  0.05416581  0.20081277  0.62023953     0.04500
C403        C  0.52599062  0.12638994  0.67602150     0.26900
C404        C  0.49286287  0.11601711  0.69305767    -0.13500
C405        C  0.49076737  0.09511237  0.71607367     0.05000
C406        C  0.51849083  0.07916179  0.72007225    -0.09500
C407        C  0.05666869  0.09740172  0.70495216     0.05800
C408        C  0.06047433  0.12067451  0.68313749    -0.13900
Br409      Br  0.07498444  0.22795896  0.67548232    -0.05900
Br410      Br  0.48778690  0.08408671  0.57352785    -0.00300
Br411      Br  0.45267601  0.09336001  0.74191657     0.00200
Br412      Br  0.11136692  0.14444272  0.66302729    -0.04300
Br413      Br  0.08183417  0.26141176  0.61538062     0.00200
Br414      Br  0.47436220  0.05152085  0.63389105    -0.03600
Br415      Br  0.44985313  0.12939515  0.68414019    -0.04400
Br416      Br  0.10724107  0.10014701  0.71744253    -0.00400
C417        C  0.16254887  0.53047713  0.59329612     0.01000
C418        C  0.18059636  0.51564346  0.61153394     0.03800
C419        C  0.16588328  0.50778414  0.63691017    -0.12300
C420        C  0.13471017  0.51687627  0.64456462     0.23100
C421        C  0.11821258  0.03253163  0.62909883    -0.12800
C422        C  0.13233799  0.04087039  0.60351577     0.04500
C423        C  0.11914626  0.50886955  0.67134229     0.26900
C424        C  0.07994907  0.47181966  0.67565295    -0.13500
C425        C  0.06145813  0.46801619  0.69979754     0.05000
C426        C  0.08169339  0.50099017  0.72000277    -0.09500
C427        C  0.11991988  0.02551286  0.71998853     0.05800
C428        C  0.14164337  0.03427558  0.69643836    -0.13900
Br429      Br  0.06880467  0.03509787  0.63851683    -0.05900
Br430      Br  0.22528185  0.50552142  0.60162638    -0.00300
Br431      Br  0.01308392  0.41387247  0.70643413     0.00200
Br432      Br  0.19828383  0.08506511  0.69471354    -0.04300
Br433      Br  0.09984142  0.05020871  0.57733444     0.00200
Br434      Br  0.18606670  0.48173519  0.66063052    -0.03600
Br435      Br  0.05258288  0.42604714  0.64849410    -0.04400
Br436      Br  0.15525171  0.05739257  0.75080683    -0.00400
C437        C  0.01897995  0.51088413  0.77888236     0.45100
H438        H  0.02163857  0.51250034  0.80059595    -0.03900
C439        C  0.50339483  0.00010907  0.72598267     0.45100
H440        H  0.50186713  0.99844897  0.70425865    -0.03900
C441        C  0.05675335  0.50917627  0.76626142    -0.17600
C442        C  0.46297069  0.96360022  0.76461941    -0.17400
C443        C  0.02086314  0.55125349  0.76824665    -0.17800
C444        C  0.04323142  0.99888999  0.73765138    -0.17700
C445        C  0.46144628  0.96257383  0.73745490    -0.17300
C446        C  0.51972519  0.55058953  0.74110237    -0.17600
O447        O  0.33362698  0.71760633  0.95647573    -0.81300
O448        O  0.32356980  0.58004054  0.01137676    -0.65900
O449        O  0.32485679  0.64619481  0.98322181    -1.12600
C450        C  0.22660920  0.64704318  0.04105462     1.05600
O451        O  0.30572260  0.57604144  0.05228846    -0.79200
O452        O  0.23555070  0.55677717  0.02090035    -0.66700
Ni453      Ni  0.36097061  0.68398447  0.95776314     1.34900
C454        C  0.22558024  0.56227548  0.99805955     0.84400
O455        O  0.40224833  0.64690007  0.99870072    -0.79700
O456        O  0.39179354  0.65436107  0.95648590    -0.90000
C457        C  0.31395176  0.56027932  0.03255036     0.83900
O458        O  0.40691330  0.72773715  0.98065328    -0.68200
O459        O  0.22883970  0.61705836  0.05119642    -0.87500
C460        C  0.41129206  0.73245667  0.00541155     0.84800
C461        C  0.41376632  0.65156004  0.97522718     1.06300
H462        H  0.31835500  0.66724917  0.04269104     0.38100
O463        O  0.30607109  0.64253591  0.03039347    -1.10100
O464        O  0.23914989  0.59931191  0.98972954    -0.66800
Ni465      Ni  0.28508806  0.65694986  0.00098710     1.26300
O466        O  0.38527686  0.70433525  0.02022415    -0.67000
O467        O  0.24696383  0.66628659  0.02122617    -0.79300
C468        C  0.29513584  0.70876325  0.95892618     0.84200
O469        O  0.26842910  0.67689402  0.97135751    -0.66500
Ni470      Ni  0.26762095  0.59685166  0.05020998     1.27400
Ni471      Ni  0.35324132  0.64292596  0.01458194     1.26100
H472        H  0.30911564  0.61795132  0.97439234     0.38700
C473        C  0.29541963  0.78961276  0.91670776     0.79900
N474        N  0.30348605  0.76035013  0.92647538    -0.78500
C475        C  0.28249869  0.73783831  0.94738900     0.82300
N476        N  0.25315951  0.74530147  0.95870672    -0.78400
C477        C  0.24557803  0.77533078  0.94926190     0.82400
N478        N  0.26706344  0.79716672  0.92848848    -0.80100
O479        O  0.07833777  0.80352479  0.04851808    -0.81300
O480        O  0.18408153  0.76246050  0.97324674    -0.65900
O481        O  0.14809719  0.80356761  0.03050945    -1.12600
C482        C  0.16207509  0.90748399  0.97264539     1.05600
O483        O  0.23100558  0.82869662  0.96248005    -0.79200
O484        O  0.23920445  0.90341332  0.98318040    -0.66700
Ni485      Ni  0.10227348  0.76807913  0.05118663     1.34900
C486        C  0.24004534  0.90773990  0.00787977     0.84400
O487        O  0.16946877  0.74255733  0.02300920    -0.79700
O488        O  0.12521474  0.73195086  0.05572541    -0.90000
C489        C  0.21836794  0.78896722  0.96244487     0.83900
O490        O  0.06260354  0.73027516  0.02350318    -0.68200
O491        O  0.16872336  0.88632031  0.95500605    -0.87500
C492        C  0.06832704  0.72090351  0.00049493     0.84800
C493        C  0.15231624  0.72589335  0.04411428     1.06300
H494        H  0.12904088  0.80550622  0.97301774     0.38100
O495        O  0.15607928  0.82085829  0.98317564    -1.10100
O496        O  0.20980637  0.88144417  0.02132966    -0.66800
Ni497      Ni  0.14947076  0.84924718  0.01328598     1.26300
O498        O  0.10534037  0.73658637  0.99116312    -0.67000
O499        O  0.15453791  0.89680245  0.99607614    -0.79300
C500        C  0.06523448  0.81027919  0.02712739     0.84200
O501        O  0.08750183  0.81858713  0.00705317    -0.66500
Ni502      Ni  0.19820047  0.85630783  0.95958794     1.27400
Ni503      Ni  0.16342380  0.78092788  0.00214695     1.26100
H504        H  0.17261284  0.81637120  0.04289717     0.38700
C505        C  0.16948643  0.66519533  0.09311903     0.79900
N506        N  0.15612238  0.68887634  0.08137896    -0.78500
C507        C  0.16541273  0.69902475  0.05624849     0.82300
N508        N  0.18833578  0.68562555  0.04287979    -0.78400
C509        C  0.20072067  0.66094972  0.05443758     0.82400
N510        N  0.19119238  0.65083442  0.07953384    -0.80100
C511        C  0.17106393  0.49597053  0.93671227     0.79900
N512        N  0.19042376  0.52985751  0.95468997    -0.78500
C513        C  0.19910383  0.52426694  0.97966971     0.82300
N514        N  0.18832825  0.48432109  0.98631667    -0.78400
C515        C  0.16739924  0.94819133  0.96621734     0.82400
N516        N  0.15873392  0.95330619  0.94142004    -0.80100
C517        C  0.47900799  0.81762910  0.05537040     0.79900
N518        N  0.44428359  0.78849136  0.04011329    -0.78500
C519        C  0.44926023  0.77048315  0.01793084     0.82300
N520        N  0.48943206  0.78020257  0.01170688    -0.78400
C521        C  0.02458780  0.80939282  0.02754332     0.82400
N522        N  0.01882472  0.82759201  0.04931699    -0.80100
C523        C  0.00566694  0.66318138  0.93988916     0.79900
N524        N  0.46471678  0.65086485  0.94536420    -0.78500
C525        C  0.45635815  0.65835207  0.97001400     0.82300
N526        N  0.98973786  0.67973571  0.98890745    -0.78400
C527        C  0.03067881  0.69238311  0.98278633     0.82400
N528        N  0.03808023  0.68399743  0.95829821    -0.80100
C529        C  0.30568899  0.97209508  0.06511245     0.79900
N530        N  0.28330544  0.93896928  0.04730380    -0.78500
C531        C  0.27530949  0.94512940  0.02251439     0.82300
N532        N  0.28876620  0.98561511  0.01543803    -0.78400
C533        C  0.31015993  0.51840293  0.03589859     0.82400
N534        N  0.31918794  0.51078967  0.06038601    -0.80100
O535        O  0.29240087  0.61144879  0.54714902    -0.81300
O536        O  0.42530758  0.72652736  0.46899429    -0.65900
O537        O  0.35881461  0.68153350  0.52813734    -1.12600
C538        C  0.25569876  0.69343689  0.47636286     1.05600
O539        O  0.40559297  0.77414633  0.46609489    -0.79200
O540        O  0.33560458  0.77251822  0.48760630    -0.66700
Ni541      Ni  0.35076992  0.63063183  0.54199032     1.34900
C542        C  0.33452420  0.77184297  0.51227129     0.84400
O543        O  0.44107490  0.70438496  0.51510509    -0.79700
O544        O  0.41008247  0.64791545  0.54005726    -0.90000
C545        C  0.43321816  0.76326415  0.46318656     0.83900
O546        O  0.33477660  0.59632328  0.50918331    -0.68200
O547        O  0.28214219  0.70274179  0.45826688    -0.87500
C548        C  0.34830451  0.60582439  0.48628867     0.84800
C549        C  0.44307264  0.67974580  0.53122232     1.06300
H550        H  0.32464060  0.66766520  0.47251859     0.38100
O551        O  0.33982800  0.69399556  0.48341508    -1.10100
O552        O  0.34078565  0.74577958  0.52449938    -0.66800
Ni553      Ni  0.31018055  0.68476768  0.51503543     1.26300
O554        O  0.37408833  0.64457668  0.48076805    -0.67000
O555        O  0.26342136  0.68857849  0.50000000    -0.79300
C556        C  0.26471793  0.60198345  0.52875285     0.84200
O557        O  0.27490502  0.62321564  0.50831847    -0.66500
Ni558      Ni  0.34344604  0.73711467  0.46244507     1.27400
Ni559      Ni  0.39151108  0.70028823  0.49818869     1.26100
H560        H  0.37379313  0.70386672  0.54186933     0.38700
C561        C  0.31270411  0.82706834  0.56630116     0.79900
N562        N  0.32732637  0.80515991  0.55267812    -0.78500
C563        C  0.32104089  0.79865955  0.52644665     0.82300
N564        N  0.29824932  0.81317761  0.51379873    -0.78400
C565        C  0.28169495  0.83380440  0.52730867     0.82400
N566        N  0.28914009  0.84077819  0.55370986    -0.80100
O567        O  0.26736469  0.92595954  0.46550824    -0.81300
O568        O  0.13424909  0.78694793  0.53253044    -0.65900
O569        O  0.18609788  0.85524226  0.47485620    -1.12600
C570        C  0.16519390  0.95595785  0.52252433     1.05600
O571        O  0.08405196  0.80342783  0.52913305    -0.79200
O572        O  0.08247199  0.85967531  0.50066591    -0.66700
Ni573      Ni  0.23626705  0.86353379  0.46015453     1.34900
C574        C  0.09036568  0.86318955  0.47668930     0.84400
O575        O  0.16467536  0.77391241  0.48812986    -0.79700
O576        O  0.20827293  0.80213309  0.45440292    -0.90000
C577        C  0.09600122  0.77804095  0.53531012     0.83900
O578        O  0.26493112  0.85832008  0.49008383    -0.68200
O579        O  0.13914282  0.92492093  0.53573633    -0.87500
C580        C  0.25380173  0.84546084  0.51279553     0.84800
C581        C  0.18450837  0.77123110  0.46872374     1.06300
H582        H  0.18600966  0.88437135  0.53170385     0.38100
O583        O  0.16360367  0.87064593  0.51791163    -1.10100
O584        O  0.12869772  0.88022143  0.46886731    -0.66800
Ni585      Ni  0.18485479  0.90365934  0.48819456     1.26300
O586        O  0.21848138  0.83844916  0.52198584    -0.67000
O587        O  0.18324475  0.95175237  0.50271447    -0.79300
C588        C  0.25369520  0.95052923  0.45971626     0.84200
O589        O  0.21387146  0.93739356  0.45985015    -0.66500
Ni590      Ni  0.11349448  0.86426458  0.53209687     1.27400
Ni591      Ni  0.16337030  0.82129975  0.50386264     1.26100
H592        H  0.16417889  0.84120696  0.46082716     0.38700
C593        C  0.17962696  0.04098357  0.56907855     0.79900
N594        N  0.16185702  0.00280574  0.55537598    -0.78500
C595        C  0.17744269  0.99901834  0.53242563     0.82300
N596        N  0.21141194  0.03416574  0.52289279    -0.78400
C597        C  0.22167511  0.56615873  0.53295745     0.82400
N598        N  0.20496709  0.56753877  0.55618593    -0.80100
C599        C  0.52839104  0.68820649  0.57620453     0.79900
N600        N  0.48911232  0.67348099  0.56411479    -0.78500
C601        C  0.48547344  0.68986545  0.54161265     0.82300
N602        N  0.52129496  0.72154171  0.53161405    -0.78400
C603        C  0.06154663  0.73679080  0.54335009     0.82400
N604        N  0.06518971  0.72059397  0.56596483    -0.80100
C605        C  0.51364228  0.83378091  0.41763694     0.79900
N606        N  0.05184433  0.85406695  0.43300623    -0.78500
C607        C  0.05122019  0.84358094  0.45840374     0.82300
N608        N  0.51204336  0.81326158  0.46794894    -0.78400
C609        C  0.47493168  0.79418507  0.45275685     0.82400
N610        N  0.47603217  0.80502809  0.42784963    -0.80100
C611        C  0.16343282  0.67123310  0.43583153     0.79900
N612        N  0.19224255  0.66524101  0.44870750    -0.78500
C613        C  0.21621352  0.69162173  0.46933291     0.82300
N614        N  0.21204155  0.72518120  0.47668569    -0.78400
C615        C  0.18291510  0.73123408  0.46372936     0.82400
N616        N  0.15942118  0.70489177  0.44276743    -0.80100
C617        C  0.32441128  0.04356775  0.42174038     0.79900
N618        N  0.34599604  0.57797785  0.44029973    -0.78500
C619        C  0.33277492  0.57011260  0.46536945     0.82300
N620        N  0.30312271  0.02781082  0.47235807    -0.78400
C621        C  0.28482481  0.99501076  0.45345045     0.82400
N622        N  0.29595758  0.00315468  0.42845227    -0.80100
C623        C  0.46332392  0.96877572  0.27422459     0.45100
H624        H  0.46032935  0.96154717  0.29497330    -0.03900
C625        C  0.47719533  0.98933672  0.22659666     0.45100
H626        H  0.48379390  0.99691681  0.20597308    -0.03900
C627        C  0.01997014  0.50837739  0.27015382    -0.17600
C628        C  0.46364289  0.93300683  0.25619521    -0.17400
C629        C  0.42872703  0.97763326  0.26231292    -0.17800
C630        C  0.02672804  0.52149169  0.24515687    -0.17700
C631        C  0.47186842  0.94528110  0.23074666    -0.17300
C632        C  0.43417035  0.98404513  0.23562021    -0.17600
C633        C  0.33609826  0.05000156  0.39391578     0.01000
C634        C  0.30344785  0.02882969  0.37362974     0.03800
C635        C  0.31387381  0.02304711  0.34808267    -0.12300
C636        C  0.35700784  0.03910390  0.34249343     0.23100
C637        C  0.40372962  0.56355023  0.36542324    -0.12800
C638        C  0.39043429  0.57091698  0.38970578     0.04500
C639        C  0.36758497  0.01991273  0.31974438     0.26900
C640        C  0.36962934  0.98353416  0.32337570    -0.13500
C641        C  0.38622956  0.96823276  0.30420668     0.05000
C642        C  0.40134109  0.98867210  0.28019217    -0.09500
C643        C  0.40613720  0.51933482  0.27741291     0.05800
C644        C  0.39057099  0.53394179  0.29801373    -0.13900
Br645      Br  0.46404586  0.58895025  0.36013187    -0.05900
Br646      Br  0.24409815  0.00656714  0.38091751    -0.00300
Br647      Br  0.38422431  0.91730217  0.31253798     0.00200
Br648      Br  0.37755995  0.57802993  0.29299002    -0.04300
Br649      Br  0.43320165  0.60565545  0.41726983     0.00200
Br650      Br  0.26907357  0.98987299  0.32126551    -0.03600
Br651      Br  0.34935259  0.95477810  0.35565501    -0.04400
Br652      Br  0.41893341  0.55134678  0.24668364    -0.00400
C653        C  0.14671038  0.64887322  0.41064885     0.01000
C654        C  0.10500287  0.61279213  0.40785295     0.03800
C655        C  0.09101120  0.58872741  0.38401276    -0.12300
C656        C  0.11914750  0.60117677  0.36339905     0.23100
C657        C  0.16130649  0.63647925  0.36648804    -0.12800
C658        C  0.17497934  0.66100906  0.39013751     0.04500
C659        C  0.10143226  0.58171769  0.33744901     0.26900
C660        C  0.09930129  0.54396482  0.32911066    -0.13500
C661        C  0.07368651  0.52049887  0.30672121     0.05000
C662        C  0.04877561  0.53386152  0.29337306    -0.09500
C663        C  0.04942661  0.57043598  0.30363055     0.05800
C664        C  0.07892699  0.59661819  0.32375526    -0.13900
Br665      Br  0.19936242  0.65143187  0.33809299    -0.05900
Br666      Br  0.06742559  0.59687258  0.43651698    -0.00300
Br667      Br  0.06084396  0.97240770  0.29270802     0.00200
Br668      Br  0.08478004  0.65065968  0.33486507    -0.04300
Br669      Br  0.23183031  0.71198335  0.39417862     0.00200
Br670      Br  0.03304436  0.53966016  0.37918888    -0.03600
Br671      Br  0.13019229  0.52410214  0.34925020    -0.04400
Br672      Br  0.00222978  0.57764105  0.29814945    -0.00400
C673        C  0.45831799  0.89204022  0.26736641     0.01000
C674        C  0.99029869  0.88288717  0.26912566     0.03800
C675        C  0.99812153  0.86743640  0.29220599    -0.12300
C676        C  0.47163817  0.85683571  0.31239449     0.23100
C677        C  0.43189002  0.85309181  0.30725628    -0.12800
C678        C  0.42438974  0.86794675  0.28388983     0.04500
C679        C  0.48456694  0.85123841  0.33919403     0.26900
C680        C  0.98289345  0.81450248  0.34562344    -0.13500
C681        C  0.99724799  0.81096679  0.37067115     0.05000
C682        C  0.51134522  0.84315982  0.38999063    -0.09500
C683        C  0.51177050  0.88056119  0.38416273     0.05800
C684        C  0.49807883  0.88440606  0.35899409    -0.13900
Br685      Br  0.38777242  0.82664155  0.33201000    -0.05900
Br686      Br  0.02304139  0.88584024  0.24003618    -0.00300
Br687      Br  0.99587246  0.75926260  0.37860428     0.00200
Br688      Br  0.49412723  0.93361727  0.35231367    -0.04300
Br689      Br  0.36605908  0.84124067  0.27020772     0.00200
Br690      Br  0.04769624  0.86188904  0.29601781    -0.03600
Br691      Br  0.95833638  0.76621382  0.32025033    -0.04400
Br692      Br  0.52771268  0.92506438  0.41134010    -0.00400
C693        C  0.30853932  0.96277410  0.09271750     0.01000
C694        C  0.32028500  0.93279122  0.09864073     0.03800
C695        C  0.32252573  0.92336710  0.12471258    -0.12300
C696        C  0.31716679  0.94664260  0.14510383     0.23100
C697        C  0.31168712  0.47403774  0.14139886    -0.12800
C698        C  0.30215746  0.47957147  0.11562521     0.04500
C699        C  0.34371174  0.95639491  0.16962085     0.26900
C700        C  0.32771487  0.93439919  0.19238385    -0.13500
C701        C  0.35560794  0.94427697  0.21486480     0.05000
C702        C  0.40017939  0.97711539  0.21462726    -0.09500
C703        C  0.42589097  0.50027156  0.19173346     0.05800
C704        C  0.39856529  0.48820764  0.16935648    -0.13900
Br705      Br  0.30704395  0.50634428  0.17038448    -0.05900
Br706      Br  0.33918241  0.90877565  0.07181216    -0.00300
Br707      Br  0.33066407  0.91070282  0.24455044     0.00200
Br708      Br  0.42071113  0.51645267  0.13707785    -0.04300
Br709      Br  0.27458805  0.51150457  0.11006799     0.00200
Br710      Br  0.33887610  0.88298375  0.13318480    -0.03600
Br711      Br  0.26784788  0.88958253  0.19187501    -0.04400
Br712      Br  0.47863699  0.55371441  0.19017876    -0.00400
C713        C  0.47210591  0.91935230  0.20718821     0.01000
C714        C  0.43347277  0.88441130  0.19526794     0.03800
C715        C  0.43358113  0.86395241  0.17144374    -0.12300
C716        C  0.47173988  0.87974381  0.15839818     0.23100
C717        C  0.00966869  0.91452034  0.17015455    -0.12800
C718        C  0.00948023  0.93358462  0.19440572     0.04500
C719        C  0.47100618  0.86182602  0.13195939     0.26900
C720        C  0.48081342  0.82968261  0.12873672    -0.13500
C721        C  0.48200607  0.81424369  0.10348605     0.05000
C722        C  0.47342927  0.83102835  0.08150814    -0.09500
C723        C  0.96139671  0.86186825  0.08482843     0.05800
C724        C  0.96089061  0.87802620  0.11003912    -0.13900
Br725      Br  0.06263049  0.93537677  0.15253592    -0.05900
Br726      Br  0.37913081  0.86713173  0.20878038    -0.00300
Br727      Br  0.49403466  0.76906387  0.09897305     0.00200
Br728      Br  0.94830927  0.92272592  0.11445319    -0.04300
Br729      Br  0.06349097  0.97711746  0.21027215     0.00200
Br730      Br  0.38123332  0.81495913  0.15579255    -0.03600
Br731      Br  0.49356675  0.80771515  0.15892532    -0.04400
Br732      Br  0.94584068  0.88144075  0.05460161    -0.00400
C733        C  0.06607756  0.56284501  0.23669023     0.01000
C734        C  0.10558350  0.56552148  0.23224286     0.03800
C735        C  0.12995335  0.58775568  0.21110052    -0.12300
C736        C  0.11737115  0.61094632  0.19629836     0.23100
C737        C  0.08640381  0.61874732  0.20564471    -0.12800
C738        C  0.06205452  0.59608499  0.22655680     0.04500
C739        C  0.13377675  0.62446699  0.17016991     0.26900
C740        C  0.16847312  0.66631228  0.16695309    -0.13500
C741        C  0.17963517  0.68042311  0.14162387     0.05000
C742        C  0.15742916  0.65188695  0.11967587    -0.09500
C743        C  0.12358484  0.60981279  0.12294007     0.05800
C744        C  0.11124398  0.59634725  0.14811345    -0.13900
Br745      Br  0.07625913  0.65908869  0.18873864    -0.05900
Br746      Br  0.12917960  0.54197875  0.25483934    -0.00300
Br747      Br  0.22448440  0.73884250  0.13696107     0.00200
Br748      Br  0.06194966  0.53999019  0.15218068    -0.04300
Br749      Br  0.53013947  0.61736461  0.24268675     0.00200
Br750      Br  0.17884093  0.58459745  0.20120651    -0.03600
Br751      Br  0.19980834  0.70415104  0.19725912    -0.04400
Br752      Br  0.09277447  0.57124803  0.09270932    -0.00400
C753        C  0.42979850  0.93061236  0.78295291     0.01000
C754        C  0.38515220  0.91703721  0.78338503     0.03800
C755        C  0.36023570  0.89488727  0.80479830    -0.12300
C756        C  0.37805833  0.88367057  0.82533016     0.23100
C757        C  0.41989926  0.89250634  0.82367516    -0.12800
C758        C  0.44447216  0.91411777  0.80254831     0.04500
C759        C  0.35284935  0.85968417  0.84799890     0.26900
C760        C  0.35899524  0.88180057  0.87247337    -0.13500
C761        C  0.34171151  0.85894428  0.89504020     0.05000
C762        C  0.31701999  0.81357737  0.89333749    -0.09500
C763        C  0.31071647  0.79147788  0.86882458     0.05800
C764        C  0.32898119  0.81436872  0.84640827    -0.13900
Br765      Br  0.44260206  0.87223970  0.85024176    -0.05900
Br766      Br  0.35499780  0.92559458  0.75537391    -0.00300
Br767      Br  0.35484977  0.88989036  0.92870895     0.00200
Br768      Br  0.32328770  0.78367236  0.81361976    -0.04300
Br769      Br  0.49251989  0.90909262  0.79772348     0.00200
Br770      Br  0.30132491  0.87984856  0.80659448    -0.03600
Br771      Br  0.39297320  0.94366980  0.87513068    -0.04400
Br772      Br  0.27632692  0.72966421  0.86575085    -0.00400
C773        C  0.01620371  0.65782450  0.91327571     0.01000
C774        C  0.03696947  0.63511263  0.90854955     0.03800
C775        C  0.04764703  0.63045543  0.88310775    -0.12300
C776        C  0.03579264  0.64673616  0.86238301     0.23100
C777        C  0.51708875  0.67190292  0.86695941    -0.12800
C778        C  0.50802473  0.67795179  0.89260294     0.04500
C779        C  0.03048841  0.62725829  0.83589940     0.26900
C780        C  0.06142927  0.64730611  0.81737531    -0.13500
C781        C  0.05489299  0.62689384  0.79228064     0.05000
C782        C  0.02030393  0.58364580  0.78722329    -0.09500
C783        C  0.48637534  0.56757239  0.80436156     0.05800
C784        C  0.49161941  0.58863897  0.82866943    -0.13900
Br785      Br  0.50143598  0.69456686  0.83839681    -0.05900
Br786      Br  0.04754486  0.60727539  0.93636390    -0.00300
Br787      Br  0.09017106  0.66196874  0.76557840     0.00200
Br788      Br  0.44633930  0.56375124  0.85308250    -0.04300
Br789      Br  0.48537823  0.71421221  0.89986628     0.00200
Br790      Br  0.07573993  0.59926093  0.87608653    -0.03600
Br791      Br  0.11320999  0.70175045  0.82697916    -0.04400
Br792      Br  0.43016701  0.52179011  0.79337719    -0.00400
C793        C  0.09321994  0.51358088  0.78356417     0.01000
C794        C  0.11654023  0.55016712  0.80116300     0.03800
C795        C  0.13834326  0.54913423  0.82366890    -0.12300
C796        C  0.13575390  0.51097667  0.82928890     0.23100
C797        C  0.10367694  0.96381500  0.80760222    -0.12800
C798        C  0.08604985  0.96874869  0.78412030     0.04500
C799        C  0.14478159  0.50525895  0.85655634     0.26900
C800        C  0.18480312  0.51133997  0.86454211    -0.13500
C801        C  0.19361989  0.50865121  0.89099873     0.05000
C802        C  0.16309970  0.50159394  0.90950468    -0.09500
C803        C  0.12327018  0.49579862  0.90158365     0.05800
C804        C  0.11397833  0.49739510  0.87510503    -0.13900
Br805      Br  0.10254635  0.91151139  0.81292007    -0.05900
Br806      Br  0.12594296  0.60418295  0.79264779    -0.00300
Br807      Br  0.24707159  0.51383098  0.90194683     0.00200
Br808      Br  0.04542571  0.97187202  0.86593841    -0.04300
Br809      Br  0.06876854  0.92570325  0.75579302     0.00200
Br810      Br  0.17070881  0.59924159  0.84756831    -0.03600
Br811      Br  0.22777359  0.52470353  0.83941734    -0.04400
Br812      Br  0.07537596  0.97209174  0.92781914    -0.00400
C813        C  0.42433399  0.93116530  0.71878847     0.01000
C814        C  0.40694992  0.94751166  0.70108072     0.03800
C815        C  0.38215811  0.92339998  0.67865136    -0.12300
C816        C  0.37348449  0.88185520  0.67357177     0.23100
C817        C  0.38556056  0.86273964  0.69243262    -0.12800
C818        C  0.40957372  0.88678940  0.71559223     0.04500
C819        C  0.35654325  0.86159426  0.64697228     0.26900
C820        C  0.31215640  0.84031965  0.64018037    -0.13500
C821        C  0.29731592  0.82936605  0.61371073     0.05000
C822        C  0.32698997  0.83949235  0.59409267    -0.09500
C823        C  0.37144011  0.86090913  0.60102438     0.05800
C824        C  0.38602602  0.87188010  0.62732956    -0.13900
Br825      Br  0.37212142  0.80490159  0.68521918    -0.05900
Br826      Br  0.41110269  0.00058180  0.70862290    -0.00300
Br827      Br  0.23661623  0.80089318  0.60447705     0.00200
Br828      Br  0.44698171  0.90488270  0.63630953    -0.04300
Br829      Br  0.42337742  0.85846935  0.74129240     0.00200
Br830      Br  0.36221630  0.94835840  0.65364790    -0.03600
Br831      Br  0.27233886  0.82900557  0.66712958    -0.04400
Br832      Br  0.41334469  0.87913405  0.57448867    -0.00400
C833        C  0.53056077  0.67383243  0.60244986     0.01000
C834        C  0.51084494  0.62964114  0.60609369     0.03800
C835        C  0.50818635  0.61535719  0.63140550    -0.12300
C836        C  0.52657952  0.64516036  0.65315154     0.23100
C837        C  0.04787918  0.68995498  0.64990254    -0.12800
C838        C  0.04955728  0.70431944  0.62463684     0.04500
C839        C  0.52894314  0.62986814  0.67909940     0.26900
C840        C  0.49737682  0.61999798  0.69727326    -0.13500
C841        C  0.49811962  0.60099231  0.72059104     0.05000
C842        C  0.52720724  0.58662596  0.72398750    -0.09500
C843        C  0.06325656  0.60429635  0.70824310     0.05800
C844        C  0.06425669  0.62562672  0.68594848    -0.13900
Br845      Br  0.07361293  0.73057672  0.67979626    -0.05900
Br846      Br  0.48949839  0.58865893  0.57629376    -0.00300
Br847      Br  0.46206876  0.59966112  0.74768102     0.00200
Br848      Br  0.11339275  0.64936258  0.66440759    -0.04300
Br849      Br  0.07513231  0.76490012  0.62055292     0.00200
Br850      Br  0.47915550  0.55477975  0.63650611    -0.03600
Br851      Br  0.45265340  0.63154199  0.68964332    -0.04400
Br852      Br  0.11549629  0.60953458  0.72002172    -0.00400
C853        C  0.16910552  0.04043832  0.59669994     0.01000
C854        C  0.19116834  0.03070936  0.61542721     0.03800
C855        C  0.17535605  0.01942926  0.64045906    -0.12300
C856        C  0.13908689  0.02083951  0.64753607     0.23100
C857        C  0.11695621  0.53210859  0.62641308    -0.12800
C858        C  0.13069047  0.53864836  0.60071262     0.04500
C859        C  0.12090014  0.00797854  0.67363397     0.26900
C860        C  0.08071802  0.97047349  0.67536987    -0.13500
C861        C  0.05706732  0.96510562  0.69764751     0.05000
C862        C  0.07439444  0.99559415  0.71941051    -0.09500
C863        C  0.12621154  0.53171370  0.71751188     0.05800
C864        C  0.14371789  0.53739249  0.69268085    -0.13900
Br865      Br  0.07219310  0.54175096  0.63644038    -0.05900
Br866      Br  0.24163292  0.03004249  0.60606766    -0.00300
Br867      Br  0.00295577  0.91313970  0.69876715     0.00200
Br868      Br  0.20098820  0.58490842  0.68748918    -0.04300
Br869      Br  0.10468919  0.55680583  0.57532038     0.00200
Br870      Br  0.20103623  0.99832432  0.66403995    -0.03600
Br871      Br  0.05806223  0.92750943  0.64651446    -0.04400
Br872      Br  0.16605507  0.56435430  0.74657375    -0.00400
C873        C  0.50595374  0.00390388  0.77621820     0.45100
H874        H  0.50764765  0.00605891  0.79794496    -0.03900
C875        C  0.01398485  0.50829140  0.72870203     0.45100
H876        H  0.01169982  0.50720607  0.70699211    -0.03900
C877        C  0.54356124  0.00063113  0.76464099    -0.17600
C878        C  0.97567786  0.47046604  0.76735211    -0.17400
C879        C  0.50920862  0.04444430  0.76459113    -0.17800
C880        C  0.55321767  0.50619268  0.73931940    -0.17700
C881        C  0.97277561  0.47019276  0.74018593    -0.17300
C882        C  0.01085737  0.04434044  0.73778713    -0.17600
O883        O  0.83184647  0.21651944  0.95466762    -0.81300
O884        O  0.82412346  0.08008849  0.00812765    -0.65900
O885        O  0.82345555  0.14533269  0.98052517    -1.12600
C886        C  0.72290956  0.14179003  0.03843784     1.05600
O887        O  0.80748388  0.07682468  0.04915926    -0.79200
O888        O  0.73644620  0.05505282  0.01737290    -0.66700
Ni889      Ni  0.85882082  0.18286395  0.95493030     1.34900
C890        C  0.72554771  0.06054573  0.99475084     0.84400
O891        O  0.90192331  0.14758499  0.99519133    -0.79700
O892        O  0.88888373  0.15272852  0.95303235    -0.90000
C893        C  0.81537937  0.06086191  0.02942250     0.83900
O894        O  0.90567348  0.22646507  0.97742032    -0.68200
O895        O  0.72626325  0.11226458  0.04825533    -0.87500
C896        C  0.91020125  0.23156539  0.00215756     0.84800
C897        C  0.91233391  0.15158362  0.97147725     1.06300
H898        H  0.81693948  0.16572244  0.04010602     0.38100
O899        O  0.80498312  0.14118281  0.02769140    -1.10100
O900        O  0.73795862  0.09751585  0.98679542    -0.66800
Ni901      Ni  0.78319846  0.15512766  0.99854389     1.26300
O902        O  0.88375998  0.20399155  0.01705918    -0.67000
O903        O  0.74395210  0.16260250  0.01910835    -0.79300
C904        C  0.79319769  0.20719515  0.95685944     0.84200
O905        O  0.76632576  0.17516537  0.96911954    -0.66500
Ni906      Ni  0.76718776  0.09474804  0.04714904     1.27400
Ni907      Ni  0.85267814  0.14266848  0.01151862     1.26100
H908        H  0.80800139  0.11705272  0.97173864     0.38700
C909        C  0.79674300  0.28926031  0.91505622     0.79900
N910        N  0.80324493  0.25907141  0.92477690    -0.78500
C911        C  0.78099573  0.23619306  0.94517261     0.82300
N912        N  0.75191879  0.24419829  0.95619638    -0.78400
C913        C  0.74574213  0.27518490  0.94690187     0.82400
N914        N  0.76853646  0.29754638  0.92652542    -0.80100
O915        O  0.57512357  0.29834414  0.04531961    -0.81300
O916        O  0.68396509  0.26201298  0.97046715    -0.65900
O917        O  0.64598730  0.29954387  0.02842837    -1.12600
C918        C  0.66425586  0.40932561  0.97376123     1.05600
O919        O  0.73233004  0.32903769  0.96144649    -0.79200
O920        O  0.74087399  0.40300132  0.98487734    -0.66700
Ni921      Ni  0.59859344  0.26258769  0.04775781     1.34900
C922        C  0.73987410  0.40644808  0.00953578     0.84400
O923        O  0.66546762  0.23694337  0.01958584    -0.79700
O924        O  0.62056436  0.22573417  0.05199018    -0.90000
C925        C  0.71876370  0.28898644  0.96024758     0.83900
O926        O  0.56037443  0.22664138  0.01904252    -0.68200
O927        O  0.67286058  0.39005124  0.95587667    -0.87500
C928        C  0.56685354  0.21984494  0.99565328     0.84800
C929        C  0.64728162  0.21922409  0.04035233     1.06300
H930        H  0.63099633  0.30689439  0.97105926     0.38100
O931        O  0.65733539  0.32107178  0.98191470    -1.10100
O932        O  0.70871598  0.37939444  0.02219051    -0.66800
Ni933      Ni  0.64871991  0.34704810  0.01247081     1.26300
O934        O  0.60426398  0.23617783  0.98679260    -0.67000
O935        O  0.65473066  0.39626013  0.99663468    -0.79300
C936        C  0.56349066  0.30655881  0.02392040     0.84200
O937        O  0.58720281  0.31644883  0.00449673    -0.66500
Ni938      Ni  0.70088850  0.35829035  0.95964633     1.27400
Ni939      Ni  0.66220478  0.27847217  0.99970565     1.26100
H940        H  0.66992625  0.31126468  0.04119571     0.38700
C941        C  0.65711191  0.15217790  0.08846158     0.79900
N942        N  0.64569202  0.17744145  0.07666745    -0.78500
C943        C  0.65834836  0.19044018  0.05228745     0.82300
N944        N  0.68313352  0.17861797  0.03977553    -0.78400
C945        C  0.69425525  0.15289697  0.05123778     0.82400
N946        N  0.68124442  0.13976614  0.07563109    -0.80100
C947        C  0.66868415  0.99230082  0.93401672     0.79900
N948        N  0.68922639  0.02714948  0.95138294    -0.78500
C949        C  0.69893386  0.02247868  0.97642666     0.82300
N950        N  0.68780046  0.98280116  0.98365313    -0.78400
C951        C  0.66894250  0.45033862  0.96816067     0.82400
N952        N  0.66120113  0.45667597  0.94337959    -0.80100
C953        C  0.97897399  0.31665652  0.05170241     0.79900
N954        N  0.94405557  0.28775080  0.03655781    -0.78500
C955        C  0.94862162  0.26922316  0.01450927     0.82300
N956        N  0.98855976  0.27802002  0.00840676    -0.78400
C957        C  0.52346166  0.30671212  0.02385891     0.82400
N958        N  0.51801446  0.32510963  0.04559802    -0.80100
C959        C  0.50418019  0.17014869  0.93354390     0.79900
N960        N  0.96355079  0.15582372  0.94025450    -0.78500
C961        C  0.95522541  0.16005304  0.96546555     0.82300
N962        N  0.48840797  0.17968303  0.98392398    -0.78400
C963        C  0.52945871  0.19395852  0.97716417     0.82400
N964        N  0.53687360  0.18915692  0.95195924    -0.80100
C965        C  0.80575189  0.47011526  0.06731502     0.79900
N966        N  0.78303009  0.43721205  0.04935023    -0.78500
C967        C  0.77423291  0.44383637  0.02484337     0.82300
N968        N  0.78699212  0.48445882  0.01828212    -0.78400
C969        C  0.81171011  0.01933403  0.03298242     0.82400
N970        N  0.81954235  0.01200600  0.05779802    -0.80100
O971        O  0.80068624  0.11561107  0.54923475    -0.81300
O972        O  0.93080686  0.22343186  0.46701648    -0.65900
O973        O  0.86768034  0.18336596  0.52824502    -1.12600
C974        C  0.76528552  0.19500647  0.47623582     1.05600
O975        O  0.91553588  0.27438638  0.46618601    -0.79200
O976        O  0.84608300  0.27520527  0.48814630    -0.66700
Ni977      Ni  0.85823985  0.13226891  0.54261505     1.34900
C978        C  0.84538519  0.27491328  0.51289545     0.84400
O979        O  0.94779406  0.20213370  0.51289705    -0.79700
O980        O  0.91648826  0.14684734  0.53876729    -0.90000
C981        C  0.94068449  0.26090058  0.46136327     0.83900
O982        O  0.83865821  0.09646903  0.51044951    -0.68200
O983        O  0.79215174  0.20549506  0.45836680    -0.87500
C984        C  0.85065586  0.10464154  0.48720591     0.84800
C985        C  0.94940721  0.17715542  0.52877629     1.06300
H986        H  0.83127812  0.16875839  0.47285206     0.38100
O987        O  0.84763594  0.19511334  0.48363337    -1.10100
O988        O  0.85131745  0.24859373  0.52495094    -0.66800
Ni989      Ni  0.81940381  0.18746653  0.51566826     1.26300
O990        O  0.87771158  0.14262773  0.48093142    -0.67000
O991        O  0.77311496  0.19151344  0.50019773    -0.79300
C992        C  0.77233129  0.10642263  0.53126779     0.84200
O993        O  0.78271427  0.12590757  0.51012109    -0.66500
Ni994      Ni  0.85318912  0.23906442  0.46277613     1.27400
Ni995      Ni  0.89863854  0.19967669  0.49733695     1.26100
H996        H  0.88385362  0.20615538  0.54155772     0.38700
C997        C  0.82401726  0.33140610  0.56707851     0.79900
N998        N  0.83983665  0.31031550  0.55355591    -0.78500
C999        C  0.83225527  0.30214950  0.52729720     0.82300
N1000       N  0.80809146  0.31511052  0.51466666    -0.78400
C1001       C  0.79095452  0.33531026  0.52795204     0.82400
N1002       N  0.79896444  0.34332973  0.55432510    -0.80100
O1003       O  0.77659260  0.42896436  0.46563987    -0.81300
O1004       O  0.64053857  0.28251966  0.52847416    -0.65900
O1005       O  0.69630467  0.35534423  0.47309975    -1.12600
C1006       C  0.66832484  0.45051194  0.52104147     1.05600
O1007       O  0.59001079  0.29802802  0.52397378    -0.79200
O1008       O  0.58943013  0.35681313  0.49766100    -0.66700
Ni1009     Ni  0.74880412  0.36671843  0.46035926     1.34900
C1010       C  0.59774400  0.35926358  0.47375759     0.84400
O1011       O  0.67285756  0.27337654  0.48412371    -0.79700
O1012       O  0.72404158  0.30569036  0.45457410    -0.90000
C1013       C  0.60202206  0.27296154  0.53069262     0.83900
O1014       O  0.77649268  0.36339752  0.49149445    -0.68200
O1015       O  0.64399489  0.41896473  0.53446870    -0.87500
C1016       C  0.76278634  0.34631168  0.51299240     0.84800
C1017       C  0.69639365  0.27301287  0.46640885     1.06300
H1018       H  0.69230281  0.38074764  0.52989132     0.38100
O1019       O  0.67041510  0.36734513  0.51579216    -1.10100
O1020       O  0.63624236  0.37604190  0.46632398    -0.66800
Ni1021     Ni  0.69185663  0.40165114  0.48658317     1.26300
O1022       O  0.72504592  0.33447660  0.52036998    -0.67000
O1023       O  0.68666274  0.44763388  0.50099810    -0.79300
C1024       C  0.76117619  0.45193491  0.45944395     0.84200
O1025       O  0.72092519  0.43682257  0.45886667    -0.66500
Ni1026     Ni  0.61895733  0.35872182  0.52912508     1.27400
Ni1027     Ni  0.67132948  0.31928588  0.50098392     1.26100
H1028       H  0.67598626  0.34170334  0.45824427     0.38700
C1029       C  0.67421205  0.53272870  0.56637185     0.79900
N1030       N  0.66030191  0.49473737  0.55330155    -0.78500
C1031       C  0.67729098  0.49251314  0.53062957     0.82300
N1032       N  0.70894747  0.52902814  0.52079390    -0.78400
C1033       C  0.72841303  0.07280112  0.53642686     0.82400
N1034       N  0.71314262  0.07560460  0.55997343    -0.80100
C1035       C  0.03472121  0.18422522  0.57212804     0.79900
N1036       N  0.99547053  0.17010817  0.56046764    -0.78500
C1037       C  0.99155299  0.18559804  0.53781303     0.82300
N1038       N  0.02725505  0.21602202  0.52702365    -0.78400
C1039       C  0.56764304  0.23165742  0.53887312     0.82400
N1040       N  0.57116610  0.21592254  0.56177531    -0.80100
C1041       C  0.02122372  0.32569645  0.41363694     0.79900
N1042       N  0.56001889  0.34670317  0.42932394    -0.78500
C1043       C  0.55889353  0.33864677  0.45521406     0.82300
N1044       N  0.01952364  0.30966516  0.46487710    -0.78400
C1045       C  0.98228552  0.28979374  0.44983305     0.82400
N1046       N  0.98337331  0.29829821  0.42432835    -0.80100
C1047       C  0.66930839  0.16851296  0.43740326     0.79900
N1048       N  0.69936781  0.16353087  0.44979336    -0.78500
C1049       C  0.72598358  0.19271091  0.46884841     0.82300
N1050       N  0.72410947  0.22794869  0.47436659    -0.78400
C1051       C  0.69482558  0.23339895  0.46150463     0.82400
N1052       N  0.66743746  0.20388813  0.44286508    -0.80100
C1053       C  0.83226166  0.54560953  0.42223977     0.79900
N1054       N  0.84192247  0.07625858  0.44110409    -0.78500
C1055       C  0.83153208  0.06859961  0.46654719     0.82300
N1056       N  0.80532430  0.52982307  0.47189419    -0.78400
C1057       C  0.79074497  0.49680003  0.45333704     0.82400
N1058       N  0.80463627  0.50501480  0.42890755    -0.80100
C1059       C  0.97686579  0.46629214  0.27316075     0.45100
H1060       H  0.97474498  0.45837362  0.29376597    -0.03900
C1061       C  0.98893690  0.48827442  0.22569807     0.45100
H1062       H  0.99513623  0.49654375  0.20516838    -0.03900
C1063       C  0.50671799  0.01077526  0.27125633    -0.17600
C1064       C  0.97618525  0.43108881  0.25407672    -0.17400
C1065       C  0.94198298  0.47558146  0.26236345    -0.17800
C1066       C  0.51431756  0.02374111  0.24608208    -0.17700
C1067       C  0.98311823  0.44393073  0.22874340    -0.17300
C1068       C  0.94651216  0.48317823  0.23568478    -0.17600
C1069       C  0.84719205  0.55098688  0.39495992     0.01000
C1070       C  0.81672109  0.52718842  0.37389881     0.03800
C1071       C  0.82985634  0.51855796  0.34997275    -0.12300
C1072       C  0.87375573  0.53490633  0.34642888     0.23100
C1073       C  0.88936387  0.06551199  0.36226887    -0.12800
C1074       C  0.87907404  0.07054578  0.38794914     0.04500
C1075       C  0.88704890  0.51800577  0.32378088     0.26900
C1076       C  0.89480563  0.48504038  0.32744100    -0.13500
C1077       C  0.90585005  0.46734899  0.30639508     0.05000
C1078       C  0.91599642  0.48615035  0.28162576    -0.09500
C1079       C  0.89287869  0.02295208  0.27598621     0.05800
C1080       C  0.87702596  0.03846766  0.29592040    -0.13900
Br1081     Br  0.94844595  0.09157419  0.35416286    -0.05900
Br1082     Br  0.75643788  0.50530293  0.37797925    -0.00300
Br1083     Br  0.89938005  0.41333237  0.31241498     0.00200
Br1084     Br  0.87013913  0.08657354  0.29105583    -0.04300
Br1085     Br  0.92499479  0.10147534  0.41458155     0.00200
Br1086     Br  0.78740507  0.48137527  0.32278196    -0.03600
Br1087     Br  0.89031139  0.46401128  0.36206185    -0.04400
Br1088     Br  0.90832548  0.05484552  0.24523226    -0.00400
C1089       C  0.64631421  0.14160075  0.41417234     0.01000
C1090       C  0.60192713  0.11196798  0.41422703     0.03800
C1091       C  0.57976459  0.08805747  0.39109303    -0.12300
C1092       C  0.60223338  0.09507749  0.36810444     0.23100
C1093       C  0.64662763  0.12472450  0.36811511    -0.12800
C1094       C  0.66886069  0.14790421  0.39130308     0.04500
C1095       C  0.57878251  0.07392942  0.34333746     0.26900
C1096       C  0.57870516  0.03814998  0.33283703    -0.13500
C1097       C  0.55757694  0.01928668  0.30843197     0.05000
C1098       C  0.53453110  0.03477838  0.29510797    -0.09500
C1099       C  0.53260823  0.06887541  0.30723311     0.05800
C1100       C  0.55724999  0.09042506  0.33017195    -0.13900
Br1101     Br  0.67629278  0.13496052  0.33604015    -0.05900
Br1102     Br  0.57175341  0.10516422  0.44572641    -0.00300
Br1103     Br  0.57269665  0.47053562  0.29621729     0.00200
Br1104     Br  0.56168136  0.14264949  0.34383883    -0.04300
Br1105     Br  0.72961265  0.19031943  0.39127367     0.00200
Br1106     Br  0.51872162  0.04682671  0.39054937    -0.03600
Br1107     Br  0.60784519  0.01555397  0.35219393    -0.04400
Br1108     Br  0.49080859  0.08156986  0.29649344    -0.00400
C1109       C  0.97185740  0.39008734  0.26409828     0.01000
C1110       C  0.50768886  0.38461673  0.26602595     0.03800
C1111       C  0.51519496  0.36734395  0.28832325    -0.12300
C1112       C  0.98484588  0.35209486  0.30764681     0.23100
C1113       C  0.94413514  0.34574950  0.30183570    -0.12800
C1114       C  0.93721283  0.36318959  0.27950924     0.04500
C1115       C  0.99694325  0.34582643  0.33449806     0.26900
C1116       C  0.49791485  0.30919236  0.34037309    -0.13500
C1117       C  0.50932898  0.30402773  0.36591108     0.05000
C1118       C  0.01939096  0.33528756  0.38590824    -0.09500
C1119       C  0.02011437  0.37287757  0.38019861     0.05800
C1120       C  0.00840474  0.37787062  0.35477336    -0.13900
Br1121     Br  0.89806122  0.31228188  0.32426325    -0.05900
Br1122     Br  0.54631982  0.39844188  0.23860315    -0.00300
Br1123     Br  0.50833399  0.25246127  0.37345332     0.00200
Br1124     Br  0.00497793  0.42743582  0.34832514    -0.04300
Br1125     Br  0.87905568  0.34011943  0.26662340     0.00200
Br1126     Br  0.56774529  0.36725376  0.29305056    -0.03600
Br1127     Br  0.47940139  0.26387729  0.31338482    -0.04400
Br1128     Br  0.03429376  0.41638226  0.40777145    -0.00400
C1129       C  0.81110469  0.46062031  0.09460709     0.01000
C1130       C  0.82380433  0.43095752  0.09953112     0.03800
C1131       C  0.82978370  0.42292836  0.12543276    -0.12300
C1132       C  0.82725134  0.44726573  0.14641557     0.23100
C1133       C  0.80106364  0.97351271  0.13905414    -0.12800
C1134       C  0.79604186  0.98080001  0.11282148     0.04500
C1135       C  0.85482734  0.45630337  0.17046403     0.26900
C1136       C  0.83888619  0.43598519  0.19375512    -0.13500
C1137       C  0.86717641  0.44571078  0.21602492     0.05000
C1138       C  0.91214515  0.47720354  0.21517230    -0.09500
C1139       C  0.91243027  0.00086057  0.19200498     0.05800
C1140       C  0.88562880  0.98936289  0.16951362    -0.13900
Br1141     Br  0.79206439  0.00414914  0.16713600    -0.05900
Br1142     Br  0.83803177  0.40469698  0.07137183    -0.00300
Br1143     Br  0.84205692  0.41326318  0.24612932     0.00200
Br1144     Br  0.90835727  0.01930105  0.13773670    -0.04300
Br1145     Br  0.77266264  0.01594723  0.10524042     0.00200
Br1146     Br  0.84602388  0.38200613  0.13260001    -0.03600
Br1147     Br  0.77832380  0.39361485  0.19432289    -0.04400
Br1148     Br  0.96471593  0.05419970  0.19104514    -0.00400
C1149       C  0.98072388  0.41787495  0.20450913     0.01000
C1150       C  0.94081470  0.38332327  0.19364014     0.03800
C1151       C  0.93837496  0.36162875  0.16982148    -0.12300
C1152       C  0.97474641  0.37712242  0.15514448     0.23100
C1153       C  0.51442768  0.41217195  0.16493192    -0.12800
C1154       C  0.51750805  0.43218653  0.18945424     0.04500
C1155       C  0.97133778  0.35865283  0.12860994     0.26900
C1156       C  0.97963169  0.32559002  0.12486944    -0.13500
C1157       C  0.98065814  0.31086569  0.09945697     0.05000
C1158       C  0.97368142  0.32955038  0.07789345    -0.09500
C1159       C  0.46378168  0.36120731  0.08170287     0.05800
C1160       C  0.46326919  0.37636673  0.10715929    -0.13900
Br1161     Br  0.56424537  0.43261514  0.14408544    -0.05900
Br1162     Br  0.88775070  0.37010730  0.20729054    -0.00300
Br1163     Br  0.99195110  0.26527939  0.09424206     0.00200
Br1164     Br  0.45461129  0.42360103  0.11252808    -0.04300
Br1165     Br  0.57265304  0.47903341  0.20114676     0.00200
Br1166     Br  0.88504995  0.31108986  0.15663948    -0.03600
Br1167     Br  0.99203173  0.30247331  0.15463319    -0.04400
Br1168     Br  0.45369290  0.38580124  0.05189700    -0.00400
C1169       C  0.55347168  0.06555635  0.23721999     0.01000
C1170       C  0.59303917  0.06861529  0.23275186     0.03800
C1171       C  0.61517691  0.08691546  0.21000363    -0.12300
C1172       C  0.60080588  0.10697225  0.19348688     0.23100
C1173       C  0.57079314  0.11631412  0.20277076    -0.12800
C1174       C  0.54862602  0.09718488  0.22528737     0.04500
C1175       C  0.61694910  0.11833944  0.16676614     0.26900
C1176       C  0.65261978  0.15918235  0.16246740    -0.13500
C1177       C  0.66659511  0.16973025  0.13692934     0.05000
C1178       C  0.64454312  0.13980813  0.11547745    -0.09500
C1179       C  0.60895372  0.09900016  0.11978575     0.05800
C1180       C  0.59505660  0.08838069  0.14530247    -0.13900
Br1181     Br  0.55998345  0.15496580  0.18429195    -0.05900
Br1182     Br  0.62175082  0.05580243  0.25911119    -0.00300
Br1183     Br  0.71637231  0.22504796  0.13128604     0.00200
Br1184     Br  0.54471572  0.03334822  0.15079206    -0.04300
Br1185     Br  0.01999964  0.12250376  0.24195141     0.00200
Br1186     Br  0.66465195  0.08423071  0.20115046    -0.03600
Br1187     Br  0.68109910  0.20113518  0.19147690    -0.04400
Br1188     Br  0.57853282  0.05809611  0.09053717    -0.00400
C1189       C  0.94346059  0.43706270  0.78579649     0.01000
C1190       C  0.89854438  0.42224838  0.78647783     0.03800
C1191       C  0.87410348  0.39886224  0.80764646    -0.12300
C1192       C  0.89267933  0.38785976  0.82781370     0.23100
C1193       C  0.93501496  0.39803699  0.82594221    -0.12800
C1194       C  0.95921191  0.42082029  0.80491638     0.04500
C1195       C  0.86706666  0.36258794  0.85001765     0.26900
C1196       C  0.87004652  0.38352722  0.87441589    -0.13500
C1197       C  0.84790105  0.35958145  0.89574622     0.05000
C1198       C  0.82158067  0.31436622  0.89278609    -0.09500
C1199       C  0.81910256  0.29339433  0.86844171     0.05800
C1200       C  0.84214489  0.31734515  0.84733250    -0.13900
Br1201     Br  0.95897895  0.37818846  0.85188120    -0.05900
Br1202     Br  0.86711097  0.43040435  0.75910179    -0.00300
Br1203     Br  0.85619356  0.38868726  0.92959539     0.00200
Br1204     Br  0.84069241  0.28821834  0.81476722    -0.04300
Br1205     Br  0.00884632  0.41854057  0.79934644     0.00200
Br1206     Br  0.81439658  0.38125614  0.80947757    -0.03600
Br1207     Br  0.90544779  0.44520519  0.87867966    -0.04400
Br1208     Br  0.78309925  0.23178172  0.86360637    -0.00400
C1209       C  0.51330007  0.16440982  0.90665311     0.01000
C1210       C  0.53080129  0.13885246  0.90131063     0.03800
C1211       C  0.53741377  0.13099884  0.87547740    -0.12300
C1212       C  0.52575291  0.14799025  0.85505994     0.23100
C1213       C  0.01262009  0.17690808  0.86073653    -0.12800
C1214       C  0.00566038  0.18455701  0.88663470     0.04500
C1215       C  0.51870522  0.12782627  0.82864256     0.26900
C1216       C  0.55022916  0.14533953  0.81032194    -0.13500
C1217       C  0.54430127  0.12211613  0.78637870     0.05000
C1218       C  0.50943388  0.07854841  0.78253658    -0.09500
C1219       C  0.97665663  0.06622968  0.79944496     0.05800
C1220       C  0.98112518  0.09034946  0.82239226    -0.13900
Br1221     Br  0.99986680  0.20235883  0.83248511    -0.05900
Br1222     Br  0.54124594  0.11060546  0.92894287    -0.00300
Br1223     Br  0.58379022  0.15336225  0.76036766     0.00200
Br1224     Br  0.93462593  0.06991091  0.84595244    -0.04300
Br1225     Br  0.98429773  0.22179489  0.89427017     0.00200
Br1226     Br  0.55851014  0.09354941  0.86766336    -0.03600
Br1227     Br  0.60248466  0.19994143  0.81907304    -0.04400
Br1228     Br  0.92090256  0.01865719  0.78954859    -0.00400
C1229       C  0.57713015  0.00183012  0.78295584     0.01000
C1230       C  0.59901808  0.03645299  0.80201940     0.03800
C1231       C  0.62007855  0.03336250  0.82410256    -0.12300
C1232       C  0.61799729  0.99491134  0.82804442     0.23100
C1233       C  0.62022030  0.47787797  0.80991922    -0.12800
C1234       C  0.60169998  0.48058077  0.78611709     0.04500
C1235       C  0.62951732  0.98861747  0.85453382     0.26900
C1236       C  0.67136035  0.99798961  0.86082287    -0.13500
C1237       C  0.68520099  0.00167820  0.88715941     0.05000
C1238       C  0.65693673  0.99528169  0.90706602    -0.09500
C1239       C  0.61456438  0.98409311  0.90070258     0.05800
C1240       C  0.60106608  0.98150161  0.87451193    -0.13900
Br1241     Br  0.62051900  0.42678999  0.81691587    -0.05900
Br1242     Br  0.60737302  0.09113619  0.79633849    -0.00300
Br1243     Br  0.74275163  0.01543083  0.89608012     0.00200
Br1244     Br  0.55941483  0.49006897  0.86453692    -0.04300
Br1245     Br  0.58724542  0.43742564  0.75847570     0.00200
Br1246     Br  0.65073860  0.08126704  0.84982958    -0.03600
Br1247     Br  0.70992057  0.00732041  0.83338514    -0.04400
Br1248     Br  0.58222923  0.48677516  0.92738970    -0.00400
C1249       C  0.93539092  0.43908212  0.72130824     0.01000
C1250       C  0.91754080  0.45563611  0.70404271     0.03800
C1251       C  0.89355406  0.43232103  0.68106633    -0.12300
C1252       C  0.88784822  0.39224198  0.67436994     0.23100
C1253       C  0.90055991  0.37290230  0.69275146    -0.12800
C1254       C  0.92129543  0.39501655  0.71708207     0.04500
C1255       C  0.87127303  0.37291497  0.64729340     0.26900
C1256       C  0.82727109  0.34223281  0.64161329    -0.13500
C1257       C  0.81128631  0.32852942  0.61537610     0.05000
C1258       C  0.83916559  0.34601997  0.59476833    -0.09500
C1259       C  0.88295773  0.37708737  0.60053448     0.05800
C1260       C  0.89898205  0.39009012  0.62662080    -0.13900
Br1261     Br  0.89327678  0.31798612  0.68346383    -0.05900
Br1262     Br  0.91933049  0.50720853  0.71329324    -0.00300
Br1263     Br  0.75147209  0.28576471  0.60764395     0.00200
Br1264     Br  0.95886187  0.43313587  0.63410925    -0.04300
Br1265     Br  0.92916186  0.36377926  0.74369306     0.00200
Br1266     Br  0.86985157  0.45602256  0.65782312    -0.03600
Br1267     Br  0.78888127  0.32048194  0.66977633    -0.04400
Br1268     Br  0.92073429  0.40401327  0.57252632    -0.00400
C1269       C  0.03614235  0.17042017  0.59858071     0.01000
C1270       C  0.01291647  0.12619263  0.60279210     0.03800
C1271       C  0.00819074  0.11247271  0.62830940    -0.12300
C1272       C  0.02718491  0.14270817  0.64977188     0.23100
C1273       C  0.54872061  0.18631822  0.64610272    -0.12800
C1274       C  0.55350622  0.20054012  0.62059908     0.04500
C1275       C  0.02745337  0.12727073  0.67593809     0.26900
C1276       C  0.99437749  0.11707142  0.69297817    -0.13500
C1277       C  0.99235580  0.09641150  0.71608326     0.05000
C1278       C  0.02002280  0.08041919  0.72015530    -0.09500
C1279       C  0.55512203  0.09622495  0.70485793     0.05800
C1280       C  0.55895193  0.11965457  0.68312640    -0.13900
Br1281     Br  0.57310496  0.22710039  0.67596443    -0.05900
Br1282     Br  0.98776071  0.08396697  0.57359719    -0.00300
Br1283     Br  0.95469431  0.09537280  0.74199765     0.00200
Br1284     Br  0.60979048  0.14337592  0.66296258    -0.04300
Br1285     Br  0.58153313  0.26124057  0.61597413     0.00200
Br1286     Br  0.97533762  0.05200269  0.63410517    -0.03600
Br1287     Br  0.95136954  0.13041461  0.68396994    -0.04400
Br1288     Br  0.60567611  0.09884775  0.71724276    -0.00400
C1289       C  0.66365886  0.53202616  0.59384593     0.01000
C1290       C  0.68193218  0.51740699  0.61207443     0.03800
C1291       C  0.66704288  0.50917868  0.63739334    -0.12300
C1292       C  0.63537891  0.51759461  0.64497162     0.23100
C1293       C  0.61674375  0.03159405  0.62913530    -0.12800
C1294       C  0.63076600  0.03997637  0.60353143     0.04500
C1295       C  0.61977081  0.50938170  0.67171416     0.26900
C1296       C  0.58073367  0.47212041  0.67598323    -0.13500
C1297       C  0.56203326  0.46822028  0.70005428     0.05000
C1298       C  0.58199448  0.50125934  0.72023477    -0.09500
C1299       C  0.61877489  0.02457433  0.72004553     0.05800
C1300       C  0.64052956  0.03350767  0.69650256    -0.13900
Br1301     Br  0.56702856  0.03358769  0.63858080    -0.05900
Br1302     Br  0.72707432  0.50796826  0.60220489    -0.00300
Br1303     Br  0.51358907  0.41402989  0.70657908     0.00200
Br1304     Br  0.69705158  0.08448225  0.69483378    -0.04300
Br1305     Br  0.59772965  0.04855967  0.57732370     0.00200
Br1306     Br  0.68762837  0.48348816  0.66112461    -0.03600
Br1307     Br  0.55380130  0.42629895  0.64884208    -0.04400
Br1308     Br  0.65397841  0.05646918  0.75089420    -0.00400
C1309       C  0.51864471  0.51087145  0.77874789     0.45100
H1310       H  0.52113936  0.51251689  0.80046570    -0.03900
C1311       C  0.00461274  0.00125661  0.72608064     0.45100
H1312       H  0.00300625  0.99956681  0.70435612    -0.03900
C1313       C  0.55662043  0.50934026  0.76631422    -0.17600
C1314       C  0.96426106  0.96480368  0.76478466    -0.17400
C1315       C  0.52044361  0.55114205  0.76800731    -0.17800
C1316       C  0.54201673  0.99779637  0.73761005    -0.17700
C1317       C  0.96264982  0.96379180  0.73761241    -0.17300
C1318       C  0.01999839  0.55075812  0.74133672    -0.17600
O1319       O  0.83400742  0.71777571  0.95677885    -0.81300
O1320       O  0.82367596  0.58001476  0.01165234    -0.65900
O1321       O  0.82504969  0.64621766  0.98344792    -1.12600
C1322       C  0.72620103  0.64657530  0.04088096     1.05600
O1323       O  0.80571261  0.57607061  0.05252987    -0.79200
O1324       O  0.73567060  0.55664082  0.02092374    -0.66700
Ni1325     Ni  0.86125327  0.68407233  0.95805924     1.34900
C1326       C  0.72573506  0.56218150  0.99808638     0.84400
O1327       O  0.90239977  0.64696639  0.99904111    -0.79700
O1328       O  0.89196130  0.65435457  0.95680667    -0.90000
C1329       C  0.81394483  0.56024398  0.03282779     0.83900
O1330       O  0.90715282  0.72773738  0.98101376    -0.68200
O1331       O  0.72848198  0.61664692  0.05106387    -0.87500
C1332       C  0.91141222  0.73246768  0.00577423     0.84800
C1333       C  0.91393938  0.65161407  0.97556665     1.06300
H1334       H  0.81819418  0.66713958  0.04287403     0.38100
O1335       O  0.80600195  0.64245268  0.03056052    -1.10100
O1336       O  0.73930301  0.59923200  0.98977406    -0.66800
Ni1337     Ni  0.78514695  0.65688202  0.00108905     1.26300
O1338       O  0.88530069  0.70434453  0.02055173    -0.67000
O1339       O  0.74681710  0.66604684  0.02118525    -0.79300
C1340       C  0.79547425  0.70888410  0.95907775     0.84200
O1341       O  0.76865386  0.67690992  0.97140296    -0.66500
Ni1342     Ni  0.76745839  0.59668018  0.05028789     1.27400
Ni1343     Ni  0.85330219  0.64292064  0.01486169     1.26100
H1344       H  0.80937743  0.61798721  0.97459894     0.38700
C1345       C  0.79642344  0.79010002  0.91688125     0.79900
N1346       N  0.80430419  0.76073683  0.92669194    -0.78500
C1347       C  0.78296591  0.73803254  0.94747191     0.82300
N1348       N  0.75340840  0.74537141  0.95859740    -0.78400
C1349       C  0.74596780  0.77547864  0.94910977     0.82400
N1350       N  0.76785235  0.79753948  0.92848526    -0.80100
O1351       O  0.57821710  0.80331193  0.04820148    -0.81300
O1352       O  0.68413637  0.76236892  0.97289048    -0.65900
O1353       O  0.64791466  0.80326665  0.03016461    -1.12600
C1354       C  0.66202541  0.90748469  0.97250409     1.05600
O1355       O  0.73089117  0.82861679  0.96202233    -0.79200
O1356       O  0.73911850  0.90321960  0.98293391    -0.66700
Ni1357     Ni  0.60205102  0.76777608  0.05081191     1.34900
C1358       C  0.73995239  0.90747778  0.00763693     0.84400
O1359       O  0.66923281  0.74220951  0.02262844    -0.79700
O1360       O  0.62483485  0.73152464  0.05527503    -0.90000
C1361       C  0.71844356  0.78894163  0.96210992     0.83900
O1362       O  0.56242057  0.73009248  0.02309624    -0.68200
O1363       O  0.66866140  0.88637070  0.95482013    -0.87500
C1364       C  0.56816094  0.72070211  0.00009844     0.84800
C1365       C  0.65190436  0.72541434  0.04367493     1.06300
H1366       H  0.62895234  0.80537826  0.97270036     0.38100
O1367       O  0.65599001  0.82071321  0.98285986    -1.10100
O1368       O  0.70967735  0.88118949  0.02107343    -0.66800
Ni1369     Ni  0.64934197  0.84902448  0.01300965     1.26300
O1370       O  0.60518901  0.73636566  0.99076937    -0.67000
O1371       O  0.65445592  0.89668721  0.99590885    -0.79300
C1372       C  0.56509667  0.81007352  0.02682172     0.84200
O1373       O  0.58736778  0.81839971  0.00674746    -0.66500
Ni1374     Ni  0.69808441  0.85625870  0.95928052     1.27400
Ni1375     Ni  0.66329795  0.78069890  0.00179140     1.26100
H1376       H  0.67240968  0.81602770  0.04256641     0.38700
C1377       C  0.66805420  0.66391119  0.09255499     0.79900
N1378       N  0.65498127  0.68782916  0.08082446    -0.78500
C1379       C  0.66469279  0.69828883  0.05577651     0.82300
N1380       N  0.68779788  0.68501699  0.04250399    -0.78400
C1381       C  0.69993272  0.66015288  0.05407135     0.82400
N1382       N  0.68997208  0.64971520  0.07907162    -0.80100
C1383       C  0.67125676  0.49600662  0.93672239     0.79900
N1384       N  0.69065850  0.52986521  0.95471030    -0.78500
C1385       C  0.69926263  0.52421233  0.97968603     0.82300
N1386       N  0.68833914  0.48422524  0.98632970    -0.78400
C1387       C  0.66730482  0.94821574  0.96614169     0.82400
N1388       N  0.65849691  0.95333149  0.94138000    -0.80100
C1389       C  0.97919446  0.81797151  0.05561824     0.79900
N1390       N  0.94442887  0.78865127  0.04044474    -0.78500
C1391       C  0.94937555  0.77050479  0.01830995     0.82300
N1392       N  0.98954536  0.78025538  0.01206659    -0.78400
C1393       C  0.52444725  0.80918981  0.02726202     0.82400
N1394       N  0.51864041  0.82722489  0.04909828    -0.80100
C1395       C  0.50542184  0.66294926  0.93953310     0.79900
N1396       N  0.96494837  0.65105178  0.94570678    -0.78500
C1397       C  0.95655843  0.65849439  0.97036115     0.82300
N1398       N  0.48956228  0.67957833  0.98854763    -0.78400
C1399       C  0.53048871  0.69217154  0.98241345     0.82400
N1400       N  0.53785397  0.68375855  0.95792758    -0.80100
C1401       C  0.80557908  0.97173111  0.06489759     0.79900
N1402       N  0.78320475  0.93861971  0.04707638    -0.78500
C1403       C  0.77524693  0.94482114  0.02228540     0.82300
N1404       N  0.78871151  0.98532263  0.01523117    -0.78400
C1405       C  0.80992379  0.51826247  0.03620610     0.82400
N1406       N  0.81868586  0.51053198  0.06072931    -0.80100
O1407       O  0.79333662  0.61300735  0.54763862    -0.81300
O1408       O  0.92619682  0.72755388  0.46936346    -0.65900
O1409       O  0.85972319  0.68282750  0.52852117    -1.12600
C1410       C  0.75653685  0.69437996  0.47647170     1.05600
O1411       O  0.90645102  0.77516569  0.46645782    -0.79200
O1412       O  0.83628525  0.77356446  0.48777155    -0.66700
Ni1413     Ni  0.85162412  0.63196350  0.54246523     1.34900
C1414       C  0.83517217  0.77293347  0.51243978     0.84400
O1415       O  0.94195247  0.70544530  0.51552747    -0.79700
O1416       O  0.91085004  0.64902270  0.54051158    -0.90000
C1417       C  0.93404749  0.76425423  0.46350890     0.83900
O1418       O  0.83555486  0.59752304  0.50970117    -0.68200
O1419       O  0.78304743  0.70369388  0.45841658    -0.87500
C1420       C  0.84915214  0.60692053  0.48680969     0.84800
C1421       C  0.94387264  0.68074051  0.53163576     1.06300
H1422       H  0.82555741  0.66874065  0.47287354     0.38100
O1423       O  0.84073930  0.69510148  0.48374180    -1.10100
O1424       O  0.84163995  0.74702878  0.52469042    -0.66800
Ni1425     Ni  0.81106952  0.68599944  0.51532372     1.26300
O1426       O  0.87497186  0.64563833  0.48124178    -0.67000
O1427       O  0.76427236  0.68968776  0.50015285    -0.79300
C1428       C  0.76566371  0.60341403  0.52921882     0.84200
O1429       O  0.77585734  0.62445686  0.50871191    -0.66500
Ni1430     Ni  0.84433850  0.73814330  0.46270545     1.27400
Ni1431     Ni  0.89241783  0.70141331  0.49857178     1.26100
H1432       H  0.87470237  0.70521560  0.54222286     0.38700
C1433       C  0.81327390  0.82810647  0.56648030     0.79900
N1434       N  0.82794376  0.80626898  0.55282690    -0.78500
C1435       C  0.82143540  0.79956348  0.52661124     0.82300
N1436       N  0.79825816  0.81370923  0.51401296    -0.78400
C1437       C  0.78156408  0.83418105  0.52756279     0.82400
N1438       N  0.78933475  0.84144535  0.55393698    -0.80100
O1439       O  0.76669147  0.92593388  0.46581517    -0.81300
O1440       O  0.63358922  0.78684184  0.53275991    -0.65900
O1441       O  0.68553913  0.85510430  0.47512302    -1.12600
C1442       C  0.66426856  0.95572209  0.52263182     1.05600
O1443       O  0.58326621  0.80315157  0.52915150    -0.79200
O1444       O  0.58159744  0.85937873  0.50071548    -0.66700
Ni1445     Ni  0.73575597  0.86353908  0.46044932     1.34900
C1446       C  0.58954392  0.86271570  0.47674386     0.84400
O1447       O  0.66438274  0.77387536  0.48848569    -0.79700
O1448       O  0.70792270  0.80216874  0.45473853    -0.90000
C1449       C  0.59523993  0.77778500  0.53533939     0.83900
O1450       O  0.76447967  0.85845810  0.49037548    -0.68200
O1451       O  0.63821824  0.92467349  0.53584656    -0.87500
C1452       C  0.75342028  0.84560943  0.51309238     0.84800
C1453       C  0.68430697  0.77127702  0.46910276     1.06300
H1454       H  0.68521205  0.88427427  0.53191655     0.38100
O1455       O  0.66284926  0.87047500  0.51810293    -1.10100
O1456       O  0.62791744  0.87975997  0.46898306    -0.66800
Ni1457     Ni  0.68407564  0.90344017  0.48837733     1.26300
O1458       O  0.71804409  0.83848107  0.52229859    -0.67000
O1459       O  0.68230431  0.95149633  0.50282077    -0.79300
C1460       C  0.75293613  0.95041856  0.46000216     0.84200
O1461       O  0.71307897  0.93715289  0.46003753    -0.66500
Ni1462     Ni  0.61261568  0.86399382  0.53217443     1.27400
Ni1463     Ni  0.66285187  0.82119808  0.50413475     1.26100
H1464       H  0.66364028  0.84098022  0.46108944     0.38700
C1465       C  0.67839771  0.04074665  0.56910276     0.79900
N1466       N  0.66071715  0.00258904  0.55538341    -0.78500
C1467       C  0.67651769  0.99881586  0.53251804     0.82300
N1468       N  0.71063607  0.03398071  0.52308813    -0.78400
C1469       C  0.72264465  0.56767443  0.53347547     0.82400
N1470       N  0.70608672  0.56909246  0.55675220    -0.80100
C1471       C  0.02918921  0.68880761  0.57646433     0.79900
N1472       N  0.98987927  0.67425829  0.56446482    -0.78500
C1473       C  0.98622102  0.69060734  0.54194775     0.82300
N1474       N  0.02204519  0.72202864  0.53182499    -0.78400
C1475       C  0.56077318  0.73643412  0.54323459     0.82400
N1476       N  0.56437495  0.72016066  0.56581351    -0.80100
C1477       C  0.01406177  0.83508682  0.41791624     0.79900
N1478       N  0.55127406  0.85304514  0.43288816    -0.78500
C1479       C  0.55045569  0.84289064  0.45837211     0.82300
N1480       N  0.01289116  0.81390402  0.46803160    -0.78400
C1481       C  0.97565855  0.79512633  0.45299522     0.82400
N1482       N  0.97654074  0.80630599  0.42819490    -0.80100
C1483       C  0.66403774  0.67187371  0.43590547     0.79900
N1484       N  0.69318220  0.66615392  0.44861087    -0.78500
C1485       C  0.71696148  0.69238653  0.46934966     0.82300
N1486       N  0.71234882  0.72559831  0.47692066    -0.78400
C1487       C  0.68293664  0.73139925  0.46409931     0.82400
N1488       N  0.65956542  0.70514873  0.44308975    -0.80100
C1489       C  0.82374655  0.04349130  0.42213467     0.79900
N1490       N  0.84700902  0.57886875  0.44089606    -0.78500
C1491       C  0.83366780  0.57112764  0.46595222     0.82300
N1492       N  0.80223390  0.02769284  0.47271339    -0.78400
C1493       C  0.78400347  0.99491875  0.45378504     0.82400
N1494       N  0.79525186  0.00308070  0.42881106    -0.80100
C1495       C  0.96185369  0.96833169  0.27428846     0.45100
H1496       H  0.95869291  0.96111261  0.29506315    -0.03900
C1497       C  0.97576911  0.98881223  0.22663169     0.45100
H1498       H  0.98231983  0.99635782  0.20598884    -0.03900
C1499       C  0.52001354  0.50873188  0.27011306    -0.17600
C1500       C  0.96203663  0.93244290  0.25631237    -0.17400
C1501       C  0.92740955  0.97736366  0.26235710    -0.17800
C1502       C  0.52691456  0.52162216  0.24507528    -0.17700
C1503       C  0.97032891  0.94472788  0.23087726    -0.17300
C1504       C  0.93285829  0.98375230  0.23567990    -0.17600
C1505       C  0.83562351  0.04993063  0.39435511     0.01000
C1506       C  0.80307304  0.02899941  0.37399975     0.03800
C1507       C  0.81359772  0.02329192  0.34846827    -0.12300
C1508       C  0.85673885  0.03919826  0.34296073     0.23100
C1509       C  0.90450119  0.56309213  0.36618542    -0.12800
C1510       C  0.89137285  0.57109316  0.39035704     0.04500
C1511       C  0.86728014  0.02012218  0.32013849     0.26900
C1512       C  0.86915038  0.98360963  0.32362449    -0.13500
C1513       C  0.88501007  0.96797357  0.30418449     0.05000
C1514       C  0.90017708  0.98854347  0.28025116    -0.09500
C1515       C  0.90616581  0.51899692  0.27805214     0.05800
C1516       C  0.89071316  0.53345632  0.29878912    -0.13900
Br1517     Br  0.96474973  0.58781159  0.36094365    -0.05900
Br1518     Br  0.74370869  0.00689505  0.38118079    -0.00300
Br1519     Br  0.88136146  0.91605118  0.31174141     0.00200
Br1520     Br  0.87739717  0.57738198  0.29397832    -0.04300
Br1521     Br  0.93425668  0.60640337  0.41773407     0.00200
Br1522     Br  0.76888614  0.99042627  0.32155033    -0.03600
Br1523     Br  0.84965715  0.95507966  0.35603715    -0.04400
Br1524     Br  0.91869385  0.55116959  0.24740645    -0.00400
C1525       C  0.64711946  0.64961597  0.41070328     0.01000
C1526       C  0.60523980  0.61380956  0.40789432     0.03800
C1527       C  0.59089414  0.59006535  0.38394674    -0.12300
C1528       C  0.61892732  0.60242015  0.36327701     0.23100
C1529       C  0.66116295  0.63761314  0.36632507    -0.12800
C1530       C  0.67511953  0.66194149  0.39004979     0.04500
C1531       C  0.60118794  0.58268651  0.33736713     0.26900
C1532       C  0.59914894  0.54489941  0.32918923    -0.13500
C1533       C  0.57367273  0.52126904  0.30678628     0.05000
C1534       C  0.54870504  0.53443442  0.29331941    -0.09500
C1535       C  0.54922881  0.57102521  0.30342378     0.05800
C1536       C  0.57868521  0.59742018  0.32351123    -0.13900
Br1537     Br  0.69896421  0.65269666  0.33778785    -0.05900
Br1538     Br  0.56792399  0.59781271  0.43669796    -0.00300
Br1539     Br  0.56151892  0.97283470  0.29403863     0.00200
Br1540     Br  0.58448667  0.65153804  0.33433877    -0.04300
Br1541     Br  0.73190037  0.71302502  0.39397098     0.00200
Br1542     Br  0.53260877  0.54156359  0.37907875    -0.03600
Br1543     Br  0.62999797  0.52523078  0.34953834    -0.04400
Br1544     Br  0.50189487  0.57797489  0.29786264    -0.00400
C1545       C  0.95650383  0.89135289  0.26746630     0.01000
C1546       C  0.49230384  0.88383157  0.26904129     0.03800
C1547       C  0.49953282  0.86737588  0.29185631    -0.12300
C1548       C  0.97065909  0.85765021  0.31292972     0.23100
C1549       C  0.93080064  0.85371385  0.30783054    -0.12800
C1550       C  0.92287146  0.86773373  0.28423142     0.04500
C1551       C  0.98380682  0.85219399  0.33970079     0.26900
C1552       C  0.48363345  0.81353766  0.34512721    -0.13500
C1553       C  0.49738083  0.80975778  0.37030921     0.05000
C1554       C  0.01149641  0.84446936  0.39030966    -0.09500
C1555       C  0.01167721  0.88177685  0.38454735     0.05800
C1556       C  0.99762609  0.88548621  0.35944625    -0.13900
Br1557     Br  0.88697107  0.82768518  0.33278666    -0.05900
Br1558     Br  0.52789828  0.89093866  0.24075336    -0.00300
Br1559     Br  0.49558002  0.75788700  0.37834391     0.00200
Br1560     Br  0.99359461  0.93464897  0.35277325    -0.04300
Br1561     Br  0.86453411  0.83938996  0.27026304     0.00200
Br1562     Br  0.54915229  0.86191692  0.29575775    -0.03600
Br1563     Br  0.45998198  0.76560981  0.31952952    -0.04400
Br1564     Br  0.02778599  0.92630576  0.41172972    -0.00400
C1565       C  0.80811504  0.96242074  0.09254212     0.01000
C1566       C  0.81963205  0.93233809  0.09865683     0.03800
C1567       C  0.82166932  0.92305987  0.12478900    -0.12300
C1568       C  0.81630098  0.94653609  0.14504600     0.23100
C1569       C  0.81110435  0.47390809  0.14174181    -0.12800
C1570       C  0.80142853  0.47927393  0.11595800     0.04500
C1571       C  0.84267369  0.95634317  0.16964081     0.26900
C1572       C  0.82655979  0.93430885  0.19238357    -0.13500
C1573       C  0.85438068  0.94408677  0.21488799     0.05000
C1574       C  0.89891866  0.97699899  0.21473112    -0.09500
C1575       C  0.92547889  0.50035173  0.19208617     0.05800
C1576       C  0.89815521  0.48816697  0.16970087    -0.13900
Br1577     Br  0.80650598  0.50632352  0.17067940    -0.05900
Br1578     Br  0.83841265  0.90791215  0.07201682    -0.00300
Br1579     Br  0.82947867  0.91024390  0.24447938     0.00200
Br1580     Br  0.92037522  0.51608321  0.13734656    -0.04300
Br1581     Br  0.77372437  0.51106733  0.11035740     0.00200
Br1582     Br  0.83769200  0.88254249  0.13353706    -0.03600
Br1583     Br  0.76665689  0.88960205  0.19182215    -0.04400
Br1584     Br  0.97805876  0.55395277  0.19054727    -0.00400
C1585       C  0.97087638  0.91895171  0.20741532     0.01000
C1586       C  0.93236171  0.88433286  0.19520033     0.03800
C1587       C  0.93282597  0.86426811  0.17131157    -0.12300
C1588       C  0.97123548  0.88026423  0.15849444     0.23100
C1589       C  0.51023142  0.91441569  0.16965312    -0.12800
C1590       C  0.51037453  0.93406561  0.19375706     0.04500
C1591       C  0.97094926  0.86251977  0.13208175     0.26900
C1592       C  0.98135624  0.83079527  0.12897847    -0.13500
C1593       C  0.98272911  0.81531205  0.10378138     0.05000
C1594       C  0.97370270  0.83160494  0.08172000    -0.09500
C1595       C  0.46159936  0.86163299  0.08473753     0.05800
C1596       C  0.46131438  0.87776593  0.10999327    -0.13900
Br1597     Br  0.56276126  0.93523388  0.15153418    -0.05900
Br1598     Br  0.87787394  0.86659470  0.20870644    -0.00300
Br1599     Br  0.99559071  0.77069135  0.09947843     0.00200
Br1600     Br  0.44967410  0.92310638  0.11457625    -0.04300
Br1601     Br  0.56442517  0.97924734  0.20848335     0.00200
Br1602     Br  0.88072630  0.81530106  0.15541463    -0.03600
Br1603     Br  0.99454392  0.80935321  0.15927100    -0.04400
Br1604     Br  0.44633751  0.88165788  0.05461657    -0.00400
C1605       C  0.56628168  0.56292825  0.23658293     0.01000
C1606       C  0.60571944  0.56549475  0.23209930     0.03800
C1607       C  0.62994313  0.58747083  0.21085151    -0.12300
C1608       C  0.61734984  0.61062544  0.19602362     0.23100
C1609       C  0.58655994  0.61864988  0.20541999    -0.12800
C1610       C  0.56229509  0.59615443  0.22639691     0.04500
C1611       C  0.63347794  0.62383211  0.16981229     0.26900
C1612       C  0.66792926  0.66570842  0.16638165    -0.13500
C1613       C  0.67857254  0.67961795  0.14097682     0.05000
C1614       C  0.65618776  0.65083325  0.11915876    -0.09500
C1615       C  0.62265491  0.60869900  0.12262525     0.05800
C1616       C  0.61076071  0.59544566  0.14788664    -0.13900
Br1617     Br  0.57640310  0.65893225  0.18843551    -0.05900
Br1618     Br  0.62956939  0.54246244  0.25491836    -0.00300
Br1619     Br  0.72297302  0.73810614  0.13603336     0.00200
Br1620     Br  0.56181489  0.53901315  0.15226318    -0.04300
Br1621     Br  0.02994185  0.61726288  0.24296494     0.00200
Br1622     Br  0.67864640  0.58404601  0.20087917    -0.03600
Br1623     Br  0.69967062  0.70385237  0.19650155    -0.04400
Br1624     Br  0.59166084  0.56975809  0.09257048    -0.00400
C1625       C  0.93114236  0.93178445  0.78317472     0.01000
C1626       C  0.88650988  0.91823765  0.78374475     0.03800
C1627       C  0.86170120  0.89604803  0.80519689    -0.12300
C1628       C  0.87952683  0.88456020  0.82558809     0.23100
C1629       C  0.92129018  0.89323015  0.82373267    -0.12800
C1630       C  0.94582504  0.91506642  0.80262525     0.04500
C1631       C  0.85439779  0.86051299  0.84830585     0.26900
C1632       C  0.86103191  0.88248433  0.87290755    -0.13500
C1633       C  0.84361392  0.85949683  0.89542734     0.05000
C1634       C  0.81832228  0.81415633  0.89357635    -0.09500
C1635       C  0.81164183  0.79219388  0.86896462     0.05800
C1636       C  0.82994020  0.81519001  0.84657277    -0.13900
Br1637     Br  0.94391949  0.87239854  0.84997414    -0.05900
Br1638     Br  0.85610262  0.92649839  0.75574790    -0.00300
Br1639     Br  0.85732981  0.89013782  0.92922930     0.00200
Br1640     Br  0.82329032  0.78457596  0.81358634    -0.04300
Br1641     Br  0.99382023  0.91005145  0.79756175     0.00200
Br1642     Br  0.80289575  0.88125456  0.80720696    -0.03600
Br1643     Br  0.89570570  0.94431980  0.87577872    -0.04400
Br1644     Br  0.77676904  0.73040671  0.86576136    -0.00400
C1645       C  0.51596049  0.65780923  0.91288573     0.01000
C1646       C  0.53727371  0.63565941  0.90805364     0.03800
C1647       C  0.54789117  0.63120792  0.88256218    -0.12300
C1648       C  0.53532103  0.64698742  0.86189852     0.23100
C1649       C  0.01817819  0.67224162  0.86735832    -0.12800
C1650       C  0.00887798  0.67830707  0.89294469     0.04500
C1651       C  0.52994271  0.62743568  0.83544446     0.26900
C1652       C  0.56070902  0.64754001  0.81683834    -0.13500
C1653       C  0.55421832  0.62694585  0.79180944     0.05000
C1654       C  0.51978925  0.58357326  0.78689204    -0.09500
C1655       C  0.98680718  0.56767792  0.80463744     0.05800
C1656       C  0.99202311  0.58866446  0.82898094    -0.13900
Br1657     Br  0.00387060  0.69589924  0.83875189    -0.05900
Br1658     Br  0.54867760  0.60824333  0.93577159    -0.00300
Br1659     Br  0.58963604  0.66180405  0.76508295     0.00200
Br1660     Br  0.94647462  0.56399456  0.85322792    -0.04300
Br1661     Br  0.98664533  0.71496066  0.90007146     0.00200
Br1662     Br  0.57680020  0.60086287  0.87538755    -0.03600
Br1663     Br  0.61225280  0.70227362  0.82628107    -0.04400
Br1664     Br  0.93056814  0.52210350  0.79351973    -0.00400
C1665       C  0.59303286  0.51383099  0.78373765     0.01000
C1666       C  0.61625712  0.55042895  0.80135536     0.03800
C1667       C  0.63827763  0.54952509  0.82380239    -0.12300
C1668       C  0.63580079  0.51142422  0.82942899     0.23100
C1669       C  0.60246248  0.96276979  0.80760022    -0.12800
C1670       C  0.58471795  0.96762404  0.78413466     0.04500
C1671       C  0.64493356  0.50575600  0.85667991     0.26900
C1672       C  0.68479244  0.51134830  0.86454854    -0.13500
C1673       C  0.69351651  0.50821700  0.89094032     0.05000
C1674       C  0.66329125  0.50170555  0.90954257    -0.09500
C1675       C  0.62371558  0.49660584  0.90175943     0.05800
C1676       C  0.61429776  0.49814331  0.87529889    -0.13900
Br1677     Br  0.60159115  0.91058867  0.81288066    -0.05900
Br1678     Br  0.62523332  0.60433352  0.79296173    -0.00300
Br1679     Br  0.74634886  0.51190181  0.90164317     0.00200
Br1680     Br  0.54441081  0.97080109  0.86609159    -0.04300
Br1681     Br  0.56728039  0.92448085  0.75584912     0.00200
Br1682     Br  0.67082079  0.59971586  0.84762115    -0.03600
Br1683     Br  0.72768611  0.52466877  0.83937489    -0.04400
Br1684     Br  0.57499021  0.97204346  0.92798334    -0.00400
C1685       C  0.92540882  0.93253142  0.71897299     0.01000
C1686       C  0.90810668  0.94907243  0.70135657     0.03800
C1687       C  0.88332543  0.92515096  0.67887381    -0.12300
C1688       C  0.87429206  0.88348065  0.67376016     0.23100
C1689       C  0.88612390  0.86414006  0.69260246    -0.12800
C1690       C  0.91040813  0.88810826  0.71571471     0.04500
C1691       C  0.85724385  0.86324676  0.64715689     0.26900
C1692       C  0.81289271  0.84225712  0.64034195    -0.13500
C1693       C  0.79804296  0.83113712  0.61387713     0.05000
C1694       C  0.82765464  0.84063947  0.59427850    -0.09500
C1695       C  0.87208307  0.86160894  0.60125868     0.05800
C1696       C  0.88667814  0.87296031  0.62755257    -0.13900
Br1697     Br  0.87183440  0.80600789  0.68545019    -0.05900
Br1698     Br  0.91217682  0.00204041  0.70919220    -0.00300
Br1699     Br  0.73737438  0.80313717  0.60465510     0.00200
Br1700     Br  0.94762987  0.90564135  0.63655793    -0.04300
Br1701     Br  0.92413284  0.85957572  0.74130001     0.00200
Br1702     Br  0.86384203  0.95050847  0.65388511    -0.03600
Br1703     Br  0.77312981  0.83136432  0.66726138    -0.04400
Br1704     Br  0.91406951  0.87862779  0.57483041    -0.00400
C1705       C  0.03139948  0.67441406  0.60272294     0.01000
C1706       C  0.01141683  0.63020011  0.60641622     0.03800
C1707       C  0.00884108  0.61594495  0.63173939    -0.12300
C1708       C  0.02747388  0.64576950  0.65346458     0.23100
C1709       C  0.54681899  0.68933916  0.64962968    -0.12800
C1710       C  0.54847583  0.70371719  0.62438020     0.04500
C1711       C  0.02974716  0.63043977  0.67943740     0.26900
C1712       C  0.99810943  0.62054218  0.69757091    -0.13500
C1713       C  0.99871096  0.60142532  0.72087367     0.05000
C1714       C  0.02769090  0.58694159  0.72428775    -0.09500
C1715       C  0.56269162  0.60396682  0.70787932     0.05800
C1716       C  0.56351416  0.62513433  0.68555144    -0.13900
Br1717     Br  0.57247687  0.72993630  0.67954195    -0.05900
Br1718     Br  0.98946103  0.58909743  0.57666792    -0.00300
Br1719     Br  0.96292608  0.60044430  0.74803566     0.00200
Br1720     Br  0.61248576  0.64874837  0.66387013    -0.04300
Br1721     Br  0.57374281  0.76427214  0.62033930     0.00200
Br1722     Br  0.97950905  0.55536289  0.63689598    -0.03600
Br1723     Br  0.95354313  0.63230147  0.68994273    -0.04400
Br1724     Br  0.61508810  0.60952372  0.71962003    -0.00400
C1725       C  0.66781945  0.04008964  0.59671733     0.01000
C1726       C  0.69018422  0.03071385  0.61544024     0.03800
C1727       C  0.67443043  0.01926897  0.64046525    -0.12300
C1728       C  0.63795458  0.02026489  0.64756990     0.23100
C1729       C  0.61732693  0.53252058  0.62681310    -0.12800
C1730       C  0.63136319  0.53957262  0.60119745     0.04500
C1731       C  0.61986397  0.00724541  0.67367353     0.26900
C1732       C  0.57981588  0.96958374  0.67539848    -0.13500
C1733       C  0.55607813  0.96409374  0.69764667     0.05000
C1734       C  0.57327185  0.99455693  0.71942576    -0.09500
C1735       C  0.62646472  0.53221886  0.71783608     0.05800
C1736       C  0.64409881  0.53804135  0.69305051    -0.13900
Br1737     Br  0.57168324  0.54090520  0.63666974    -0.05900
Br1738     Br  0.74093388  0.03060770  0.60606034    -0.00300
Br1739     Br  0.50203282  0.91204948  0.69866483     0.00200
Br1740     Br  0.70111290  0.58605264  0.68789427    -0.04300
Br1741     Br  0.60525365  0.55764592  0.57582250     0.00200
Br1742     Br  0.70043884  0.99839235  0.66396879    -0.03600
Br1743     Br  0.55747685  0.92657668  0.64657134    -0.04400
Br1744     Br  0.66602670  0.56524897  0.74693367    -0.00400
loop_ 
_geom_bond_atom_site_label_1 
_geom_bond_atom_site_label_2 
_geom_bond_distance 
_geom_bond_site_symmetry_2 
_ccdc_geom_bond_type 
C1            H2   1.111       .  S
C1            C7   1.573       .  S
C1            C5   1.571       .  S
C1         C1314   1.568   1_445  S
C3            H4   1.112       .  S
C3            C9   1.574       .  S
C3          C880   1.563       .  S
C3          C446   1.564       .  S
C5          C357   1.508       .  S
C5          C444   1.383   1_545  D
C6         C1309   1.574       .  S
C6          C317   1.557       .  S
C6            C9   1.394       .  D
C7          C346   1.518       .  S
C7          C882   1.378       .  D
C8          C875   1.563       .  S
C8          C426   1.530       .  S
C8          C441   1.382       .  D
C9          C377   1.524       .  S
C10         C439   1.565       .  S
C10         C406   1.527       .  S
C10         C879   1.378       .  D
O11         Ni17   1.944       .  S
O11          C32   1.278       .  A
O12         Ni35   1.959       .  S
O12          C21   1.279       .  A
O13         Ni17   1.913       .  S
O13         Ni35   1.927   1_556  S
O13         Ni29   1.936       .  S
O13          H36   0.966       .  S
C14          O31   1.282       .  A
C14          O23   1.274       .  A
C14          C73   1.469       .  S
O15         Ni34   1.906       .  S
O15          C21   1.262       .  A
O16         Ni34   1.931       .  S
O16          C18   1.275   1_554  A
Ni17         O20   1.927       .  S
Ni17         O22   1.925       .  S
C18          O28   1.274       .  A
C18          C77   1.483       .  S
O19         Ni35   1.931   1_556  S
O19          C25   1.275       .  A
O20          C25   1.278       .  A
C21          C97   1.478       .  S
O22          C24   1.268   1_556  A
O23         Ni34   1.915       .  S
C24          O30   1.272       .  A
C24          C83   1.461       .  S
C25          C89   1.475       .  S
H26          O27   0.966       .  S
O27         Ni35   1.927       .  S
O27         Ni29   1.887   1_554  S
O27         Ni34   1.884       .  S
O28         Ni29   1.935       .  S
Ni29         O33   1.929       .  S
Ni29         O31   1.928   1_556  S
O30         Ni35   1.919       .  S
C32          O33   1.275       .  A
C32          C39   1.493       .  S
C37         C326   1.497       .  S
C37          N38   1.360       .  A
C37          N42   1.359       .  A
N38          C39   1.364       .  A
C39          N40   1.372       .  A
N40          C41   1.371       .  A
C41          C53   1.492       .  S
C41          N42   1.363       .  A
O43         Ni49   1.914       .  S
O43          C64   1.270       .  A
O44         Ni67   1.932       .  S
O44          C53   1.277       .  A
O45         Ni49   1.887       .  S
O45         Ni67   1.884   1_554  S
O45         Ni61   1.913       .  S
O45          H68   0.966       .  S
C46          O63   1.272       .  A
C46          O55   1.279       .  A
C46          C79   1.465       .  S
O47         Ni66   1.944       .  S
O47          C53   1.279       .  A
O48         Ni66   1.928       .  S
O48          C50   1.269   1_556  A
Ni49         O52   1.918       .  S
Ni49         O54   1.915       .  S
C50          O60   1.269       .  A
C50          C95   1.460       .  S
O51         Ni67   1.921   1_554  S
O51          C57   1.280       .  A
O52          C57   1.277       .  A
O54          C56   1.268   1_554  A
O55         Ni66   1.926       .  S
C56          O62   1.278       .  A
C56          C91   1.473       .  S
C57          C71   1.464       .  S
H58          O59   0.966       .  S
O59         Ni67   1.926       .  S
O59         Ni61   1.918   1_556  S
O59         Ni66   1.909       .  S
O60         Ni61   1.908       .  S
Ni61         O65   1.938       .  S
Ni61         O63   1.919   1_554  S
O62         Ni67   1.932       .  S
C64          O65   1.272       .  A
C64          C85   1.467       .  S
C69         C306   1.484       .  S
C69          N70   1.356       .  A
C69          N74   1.359       .  A
N70          C71   1.361       .  A
C71          N72   1.357       .  A
N72          C73   1.356       .  A
C73          N74   1.365       .  A
C75         C366   1.462       .  S
C75          N76   1.363   1_565  A
C75         N516   1.349       .  A
N76          C77   1.365       .  A
C77          N78   1.361   1_545  A
N78         C515   1.361       .  A
C79          N80   1.351       .  A
C79         N514   1.365       .  A
N80         C511   1.351       .  A
C81         C286   1.457       .  S
C81          N82   1.350       .  A
C81         N958   1.349       .  A
N82          C83   1.354       .  A
C83          N84   1.369       .  A
N84         C957   1.364       .  A
C85          N86   1.352       .  A
C85         N956   1.364   1_455  A
N86         C953   1.349   1_455  A
C87         C337   1.459       .  S
C87          N92   1.350       .  A
C87         N960   1.356   1_455  A
N88          C89   1.357       .  A
N88         C959   1.356       .  A
C89         N962   1.368       .  A
N90          C91   1.366   1_655  A
N90         C961   1.368       .  A
C91          N92   1.350       .  A
C93         C257   1.488       .  S
C93          N94   1.347       .  A
C93         N534   1.361       .  A
N94          C95   1.352       .  A
C95          N96   1.369       .  A
N96         C533   1.365       .  A
C97          N98   1.366       .  A
C97         N532   1.364   1_545  A
N98         C529   1.357   1_545  A
O99        Ni105   1.903       .  S
O99         C120   1.264       .  A
O100       Ni123   1.921       .  S
O100        C109   1.274       .  A
O101       Ni105   1.904       .  S
O101       Ni123   1.900       .  S
O101       Ni117   1.947       .  S
O101        H124   0.964       .  S
C102        O119   1.282       .  A
C102        O111   1.277       .  A
C102        C177   1.436       .  S
O103       Ni122   1.943       .  S
O103        C109   1.277       .  A
O104       Ni122   1.938       .  S
O104        C106   1.270       .  A
Ni105       O108   1.923       .  S
Ni105       O110   1.932       .  S
C106        O116   1.274       .  A
C106        C127   1.495       .  S
O107       Ni123   1.905       .  S
O107        C113   1.274       .  A
O108        C113   1.274       .  A
C109        C173   1.481       .  S
O110        C112   1.273       .  A
O111       Ni122   1.903       .  S
C112        O118   1.278       .  A
C112        C183   1.496       .  S
C113        C165   1.462       .  S
H114        O115   0.965       .  S
O115       Ni123   1.897       .  S
O115       Ni117   1.914       .  S
O115       Ni122   1.896       .  S
O116       Ni117   1.939       .  S
Ni117       O121   1.932       .  S
Ni117       O119   1.931       .  S
O118       Ni123   1.955       .  S
C120        O121   1.277       .  A
C120        C161   1.463       .  S
C125        C386   1.484       .  S
C125        N126   1.364       .  A
C125        N130   1.369       .  A
N126        C127   1.357       .  A
C127        N128   1.365       .  A
N128        C129   1.369       .  A
C129        C144   1.496       .  S
C129        N130   1.364       .  A
O131       Ni137   1.956       .  S
O131        C152   1.281       .  A
O132       Ni155   1.930       .  S
O132        C141   1.271       .  A
O133       Ni137   1.880       .  S
O133       Ni155   1.893       .  S
O133       Ni149   1.896       .  S
O133        H156   0.966       .  S
C134        O151   1.272       .  A
C134        O143   1.274       .  A
C134        C159   1.458       .  S
O135       Ni154   1.901       .  S
O135        C141   1.265       .  A
O136       Ni154   1.897       .  S
O136        C138   1.265       .  A
Ni137       O140   1.931       .  S
Ni137       O142   1.912       .  S
C138        O148   1.283       .  A
C138        C171   1.498       .  S
O139       Ni155   1.890       .  S
O139        C145   1.272       .  A
O140        C145   1.284       .  A
C141        C167   1.461       .  S
O142        C144   1.271       .  A
O143       Ni154   1.902       .  S
C144        O150   1.284       .  A
C145        C179   1.436       .  S
H146        O147   0.967       .  S
O147       Ni155   1.908       .  S
O147       Ni149   1.902       .  S
O147       Ni154   1.888       .  S
O148       Ni149   1.979       .  S
Ni149       O153   1.899       .  S
Ni149       O151   1.917       .  S
O150       Ni155   1.967       .  S
C152        O153   1.272       .  A
C152        C185   1.474       .  S
C157        C417   1.469       .  S
C157        N158   1.347       .  A
C157        N598   1.355       .  A
N158        C159   1.351       .  A
C159        N160   1.360       .  A
N160        C597   1.360       .  A
C161        N162   1.366       .  A
C161        N596   1.358       .  A
N162        C593   1.359       .  A
C163        C397   1.477       .  S
C163        N164   1.356       .  A
C163       N1040   1.366       .  A
N164        C165   1.351       .  A
C165        N166   1.348       .  A
N166       C1039   1.357       .  A
C167        N168   1.362       .  A
C167       N1038   1.358       .  A
N168       C1035   1.366       .  A
C169        C246   1.487       .  S
C169        N174   1.361       .  A
C169       N1042   1.374       .  A
N170        C171   1.369       .  A
N170       C1041   1.374       .  A
C171       N1044   1.368       .  A
N172        C173   1.357       .  A
N172       C1043   1.368       .  A
C173        N174   1.353       .  A
C175        C217   1.444       .  S
C175        N176   1.354       .  A
C175        N180   1.354       .  A
N176        C177   1.350       .  A
C177        N178   1.349       .  A
N178        C179   1.350       .  A
C179        N180   1.349       .  A
C181        C197   1.498       .  S
C181        N186   1.356       .  A
C181        N618   1.372       .  A
N182        C183   1.367       .  A
N182        C617   1.367       .  A
C183        N620   1.368       .  A
N184        C185   1.364       .  A
N184        C619   1.368       .  A
C185        N186   1.350       .  A
C187        H188   1.101       .  S
C187        C193   1.577       .  S
C187        C192   1.578       .  S
C187       C1499   1.541       .  S
C189        H190   1.103       .  S
C189        C195   1.542       .  S
C189        C196   1.565       .  S
C189       C1502   1.567       .  S
C191       C1495   1.545   1_445  S
C191        C226   1.486       .  S
C191        C194   1.378       .  D
C192        C237   1.541       .  S
C192        C195   1.384       .  D
C193        C206   1.560       .  S
C193        C196   1.404       .  D
C194       C1497   1.569   1_445  S
C194        C297   1.549       .  S
C195        C277   1.509       .  S
C196        C266   1.536       .  S
C197        C198   1.419       .  A
C197        C638   1.413       .  A
C198        C199   1.412       .  A
C198       Br210   1.932       .  S
C199        C200   1.409       .  A
C199       Br214   1.931       .  S
C200        C203   1.502       .  S
C200        C637   1.413       .  A
C201        C202   1.410       .  A
C201        C636   1.411       .  A
C201       Br209   1.916       .  S
C202        C633   1.412       .  A
C202       Br213   1.932       .  S
C203        C204   1.398       .  A
C203        C644   1.404       .  A
C204        C205   1.410       .  A
C204       Br215   1.941       .  S
C205        C206   1.433       .  A
C205       Br211   1.909       .  S
C206        C643   1.444       .  A
C207        C208   1.426       .  A
C207        C642   1.445   1_545  A
C207       Br216   1.919       .  S
C208        C639   1.400       .  A
C208       Br212   1.935       .  S
C217        C218   1.403       .  A
C217        C222   1.407       .  A
C218        C219   1.398       .  A
C218       Br230   1.930       .  S
C219        C220   1.408       .  A
C219       Br234   1.931       .  S
C220        C223   1.455       .  S
C220        C221   1.403       .  A
C221        C222   1.393       .  A
C221       Br229   1.933       .  S
C222       Br233   1.933       .  S
C223        C224   1.398       .  A
C223        C228   1.397       .  A
C224        C225   1.400       .  A
C224       Br235   1.936       .  S
C225        C226   1.416       .  A
C225       Br667   1.907   1_545  S
C226        C227   1.409       .  A
C227        C228   1.394       .  A
C227       Br236   1.895   1_455  S
C228       Br232   1.936       .  S
Br231       C661   1.898       .  S
C237        C242   1.417       .  A
C237       C1110   1.423       .  A
C238        C239   1.418       .  A
C238       C1109   1.423   1_455  A
C238       Br250   1.908       .  S
C239       C1112   1.405   1_455  A
C239       Br254   1.933       .  S
C240        C243   1.498       .  S
C240        C241   1.404       .  A
C240       C1111   1.404       .  A
C241        C242   1.414       .  A
C241       Br249   1.928       .  S
C242       Br253   1.917       .  S
C243        C248   1.414       .  A
C243       C1116   1.412       .  A
C244        C245   1.415   1_655  A
C244       C1115   1.412       .  A
C244       Br255   1.929       .  S
C245       C1118   1.414       .  A
C245       Br251   1.929       .  S
C246        C247   1.409       .  A
C246       C1117   1.414       .  A
C247        C248   1.411       .  A
C247       Br256   1.930       .  S
C248       Br252   1.929       .  S
C257        C258   1.418       .  A
C257        C698   1.416       .  A
C258        C259   1.408       .  A
C258       Br270   1.932       .  S
C259        C260   1.406       .  A
C259       Br274   1.927       .  S
C260        C263   1.483       .  S
C260        C697   1.407       .  A
C261        C262   1.408       .  A
C261        C696   1.407       .  A
C261       Br269   1.930   1_565  S
C262        C693   1.417       .  A
C262       Br273   1.931   1_565  S
C263        C264   1.405       .  A
C263        C704   1.395       .  A
C264        C265   1.422       .  A
C264       Br275   1.930       .  S
C265        C266   1.435       .  A
C265       Br271   1.929       .  S
C266        C703   1.428       .  A
C267        C268   1.393   1_545  A
C267        C702   1.425   1_545  A
C267       Br276   1.894       .  S
C268        C699   1.394       .  A
C268       Br272   1.952   1_565  S
C277        C278   1.418       .  A
C277       C1154   1.420       .  A
C278        C279   1.405       .  A
C278       Br290   1.898       .  S
C279        C280   1.398       .  A
C279       Br294   1.934       .  S
C280        C283   1.468       .  S
C280       C1153   1.396       .  A
C281        C282   1.401       .  A
C281       C1152   1.396   1_455  A
C281       Br289   1.939       .  S
C282       C1149   1.419   1_455  A
C282       Br293   1.898       .  S
C283        C284   1.404       .  A
C283       C1160   1.410       .  A
C284        C285   1.399       .  A
C284       Br295   1.931       .  S
C285        C286   1.411       .  A
C285       Br291   1.932       .  S
C286       C1159   1.403       .  A
C287        C288   1.402       .  A
C287       C1158   1.403       .  A
C287       Br296   1.929       .  S
C288       C1155   1.410       .  A
C288       Br292   1.929       .  S
C297        C298   1.417       .  A
C297        C302   1.421       .  A
C298        C299   1.417       .  A
C298       Br310   1.911       .  S
C299        C300   1.404       .  A
C299       Br314   1.928       .  S
C300        C303   1.493       .  S
C300        C301   1.400       .  A
C301        C302   1.415       .  A
C301       Br309   1.935       .  S
C302      Br1185   1.911       .  S
C303        C304   1.410       .  A
C303        C308   1.412       .  A
C304        C305   1.412       .  A
C304       Br315   1.929       .  S
C305        C306   1.412       .  A
C305       Br311   1.929       .  S
C306        C307   1.409       .  A
C307        C308   1.411       .  A
C307       Br316   1.928       .  S
C308       Br312   1.930       .  S
Br313      C1174   1.911       .  S
C317        C318   1.437       .  A
C317        C322   1.424       .  A
C318        C319   1.427       .  A
C318       Br330   1.923       .  S
C319        C320   1.408       .  A
C319       Br334   1.932       .  S
C320        C323   1.506       .  S
C320        C321   1.397       .  A
C321        C322   1.411       .  A
C321       Br329   1.939       .  S
C322       Br333   1.890       .  S
C323        C324   1.412       .  A
C323        C328   1.413       .  A
C324        C325   1.415       .  A
C324       Br335   1.929       .  S
C325        C326   1.414       .  A
C325       Br331   1.930       .  S
C326        C327   1.414       .  A
C327        C328   1.415       .  A
C327       Br336   1.930       .  S
C328       Br332   1.929       .  S
C337        C338   1.408       .  A
C337       C1214   1.410       .  A
C338        C339   1.398       .  A
C338       Br350   1.933       .  S
C339        C340   1.406       .  A
C339       Br354   1.931       .  S
C340        C343   1.466       .  S
C340       C1213   1.406       .  A
C341        C342   1.403       .  A
C341       C1212   1.406       .  A
C341       Br349   1.930       .  S
C342       C1209   1.410       .  A
C342       Br353   1.930       .  S
C343        C344   1.398       .  A
C343       C1220   1.397   1_455  A
C344        C345   1.410       .  A
C344       Br355   1.933       .  S
C345        C346   1.430       .  A
C345       Br351   1.915       .  S
C346       C1219   1.413   1_455  A
C347        C348   1.396       .  A
C347       C1218   1.413       .  A
C347       Br356   1.899       .  S
C348       C1215   1.397       .  A
C348       Br352   1.938       .  S
C357        C358   1.415       .  A
C357        C798   1.424   1_545  A
C358        C359   1.395       .  A
C358       Br370   1.901       .  S
C359        C360   1.396   1_545  A
C359       Br374   1.938       .  S
C360        C363   1.474       .  S
C360        C797   1.406       .  A
C361        C362   1.414       .  A
C361        C796   1.406       .  A
C361       Br369   1.929       .  S
C362        C793   1.421       .  A
C362       Br373   1.923       .  S
C363        C364   1.407       .  A
C363        C368   1.411       .  A
C364        C365   1.406   1_565  A
C364       Br375   1.929   1_565  S
C365        C366   1.409   1_545  A
C365       Br371   1.928       .  S
C366        C367   1.405       .  A
C367        C368   1.401       .  A
C367       Br812   1.931       .  S
C368       Br808   1.930       .  S
Br372       C804   1.931       .  S
Br376       C803   1.930       .  S
C377        C378   1.418       .  A
C377        C382   1.421       .  A
C378        C379   1.403       .  A
C378       Br390   1.898       .  S
C379        C380   1.399       .  A
C379       Br394   1.937       .  S
C380        C383   1.493       .  S
C380        C381   1.410       .  A
C381        C382   1.420       .  A
C381       Br389   1.926       .  S
C382       Br393   1.927       .  S
C383        C384   1.412       .  A
C383        C388   1.410       .  A
C384        C385   1.415       .  A
C384       Br395   1.928       .  S
C385        C386   1.412       .  A
C385       Br391   1.927       .  S
C386        C387   1.410       .  A
C387        C388   1.406       .  A
C387       Br396   1.932       .  S
C388       Br392   1.929       .  S
C397        C398   1.413       .  A
C397       C1274   1.415       .  A
C398        C399   1.404       .  A
C398       Br410   1.932       .  S
C399        C400   1.406       .  A
C399       Br414   1.932       .  S
C400        C403   1.480       .  S
C400       C1273   1.408       .  A
C401        C402   1.409       .  A
C401       C1272   1.408       .  A
C401       Br409   1.929       .  S
C402       C1269   1.415       .  A
C402       Br413   1.931       .  S
C403        C404   1.405       .  A
C403       C1280   1.395       .  A
C404        C405   1.416       .  A
C404       Br415   1.928       .  S
C405        C406   1.427       .  A
C405       Br411   1.926       .  S
C406       C1279   1.418       .  A
C407        C408   1.401       .  A
C407       C1278   1.418       .  A
C407       Br416   1.893       .  S
C408       C1275   1.395       .  A
C408       Br412   1.939       .  S
C417        C418   1.412       .  A
C417        C858   1.405       .  A
C418        C419   1.403       .  A
C418       Br430   1.932       .  S
C419        C420   1.406       .  A
C419       Br434   1.931       .  S
C420        C423   1.481       .  S
C420        C857   1.412       .  A
C421        C422   1.408       .  A
C421        C856   1.415       .  A
C421       Br429   1.931       .  S
C422        C853   1.406       .  A
C422       Br433   1.928       .  S
C423        C424   1.397       .  A
C423        C864   1.404       .  A
C424        C425   1.403       .  A
C424       Br435   1.933       .  S
C425        C426   1.416       .  A
C425       Br431   1.896       .  S
C426        C863   1.427       .  A
C427        C428   1.416       .  A
C427        C862   1.435   1_545  A
C427       Br436   1.922       .  S
C428        C859   1.403       .  A
C428       Br432   1.936       .  S
C437        H438   1.112       .  S
C437        C443   1.568       .  S
C437        C878   1.574   1_455  S
C437        C441   1.570       .  S
C439        H440   1.111   1_545  S
C439        C445   1.580   1_545  S
C439       C1316   1.564   1_545  S
C441        C793   1.515       .  S
C442        C873   1.567   1_565  S
C442        C753   1.560       .  S
C442        C445   1.391       .  D
C443        C782   1.514       .  S
C443       C1318   1.378       .  D
C444       C1311   1.564   1_565  S
C444        C862   1.542       .  S
C445        C813   1.514       .  S
C446        C842   1.524       .  S
C446       C1315   1.378       .  D
O447       Ni453   1.956       .  S
O447        C468   1.280       .  A
O448       Ni471   1.966       .  S
O448        C457   1.283       .  A
O449       Ni453   1.920       .  S
O449       Ni471   1.934   1_556  S
O449       Ni465   1.934   1_556  S
O449        H472   0.966       .  S
C450        O467   1.278       .  A
C450        O459   1.276       .  A
C450        C509   1.463       .  S
O451       Ni470   1.911       .  S
O451        C457   1.265       .  A
O452       Ni470   1.928       .  S
O452        C454   1.273   1_554  A
Ni453       O456   1.934       .  S
Ni453       O458   1.923       .  S
C454        O464   1.276       .  A
C454        C513   1.484       .  S
O455       Ni471   1.926   1_556  S
O455        C461   1.274       .  A
O456        C461   1.279       .  A
C457        C533   1.487       .  S
O458        C460   1.269   1_556  A
O459       Ni470   1.916       .  S
C460        O466   1.272       .  A
C460        C519   1.462       .  S
C461        C525   1.477       .  S
H462        O463   0.966       .  S
O463       Ni471   1.919       .  S
O463       Ni465   1.891       .  S
O463       Ni470   1.887       .  S
O464       Ni465   1.938   1_556  S
Ni465       O469   1.931   1_554  S
Ni465       O467   1.920       .  S
O466       Ni471   1.923       .  S
C468        O469   1.274       .  A
C468        C475   1.503       .  S
C473        C762   1.497       .  S
C473        N474   1.364       .  A
C473        N478   1.356       .  A
N474        C475   1.368       .  A
C475        N476   1.375       .  A
N476        C477   1.372       .  A
C477        C489   1.492       .  S
C477        N478   1.359       .  A
O479       Ni485   1.919       .  S
O479        C500   1.271       .  A
O480       Ni503   1.933   1_556  S
O480        C489   1.275       .  A
O481       Ni485   1.883       .  S
O481       Ni503   1.884       .  S
O481       Ni497   1.905       .  S
O481        H504   0.966       .  S
C482        O499   1.271       .  A
C482        O491   1.277       .  A
C482        C515   1.455       .  S
O483       Ni502   1.941       .  S
O483        C489   1.278       .  A
O484       Ni502   1.929       .  S
O484        C486   1.267   1_556  A
Ni485       O488   1.923       .  S
Ni485       O490   1.915       .  S
C486        O496   1.267       .  A
C486        C531   1.456       .  S
O487       Ni503   1.901       .  S
O487        C493   1.275       .  A
O488        C493   1.279       .  A
O490        C492   1.268       .  A
O491       Ni502   1.920       .  S
C492        O498   1.278   1_554  A
C492        C527   1.471   1_554  S
C493        C507   1.456       .  S
H494        O495   0.966       .  S
O495       Ni503   1.919   1_556  S
O495       Ni497   1.918   1_556  S
O495       Ni502   1.911       .  S
O496       Ni497   1.902       .  S
Ni497       O501   1.941       .  S
Ni497       O499   1.912   1_554  S
O498       Ni503   1.929   1_556  S
C500        O501   1.274       .  A
C500        C521   1.471       .  S
C505        C742   1.465       .  S
C505        N506   1.353       .  A
C505        N510   1.353       .  A
N506        C507   1.358       .  A
C507        N508   1.360       .  A
N508        C509   1.356       .  A
C509        N510   1.357       .  A
C511        C802   1.463       .  S
C511        N512   1.359       .  A
N512        C513   1.361       .  A
C513        N514   1.365       .  A
C515        N516   1.347       .  A
C517        C722   1.464       .  S
C517        N518   1.351       .  A
C517       N1394   1.352       .  A
N518        C519   1.356       .  A
C519        N520   1.368       .  A
N520       C1393   1.363       .  A
C521       N1392   1.363   1_455  A
C521        N522   1.355       .  A
N522       C1389   1.352   1_455  A
C523        C773   1.461       .  S
C523       N1396   1.358   1_455  A
C523        N528   1.347       .  A
N524       C1395   1.358       .  A
N524        C525   1.358       .  A
C525       N1398   1.369       .  A
N526       C1397   1.369       .  A
N526        C527   1.365   1_655  A
C527        N528   1.348       .  A
C529        C693   1.484       .  S
C529        N530   1.345       .  A
N530        C531   1.351       .  A
C531        N532   1.367       .  A
C533        N534   1.367       .  A
O535       Ni541   1.896       .  S
O535        C556   1.262       .  A
O536       Ni559   1.913       .  S
O536        C545   1.272       .  A
O537       Ni541   1.904       .  S
O537       Ni559   1.892       .  S
O537       Ni553   1.949       .  S
O537        H560   0.964       .  S
C538        O555   1.278       .  A
C538        O547   1.280       .  A
C538        C613   1.446       .  S
O539       Ni558   1.942       .  S
O539        C545   1.276       .  A
O540       Ni558   1.925       .  S
O540        C542   1.267       .  A
Ni541       O544   1.922       .  S
Ni541       O546   1.939       .  S
C542        O552   1.278       .  A
C542        C563   1.486       .  S
O543       Ni559   1.920       .  S
O543        C549   1.278       .  A
O544        C549   1.273       .  A
C545        C609   1.476       .  S
O546        C548   1.275       .  A
O547       Ni558   1.912       .  S
C548        O554   1.278       .  A
C548        C619   1.505       .  S
C549        C601   1.472       .  S
H550        O551   0.965       .  S
O551       Ni559   1.913       .  S
O551       Ni553   1.915       .  S
O551       Ni558   1.899       .  S
O552       Ni553   1.938       .  S
Ni553       O557   1.935       .  S
Ni553       O555   1.932       .  S
O554       Ni559   1.959       .  S
C556        O557   1.275       .  A
C556        C597   1.458       .  S
C561        C822   1.473       .  S
C561        N562   1.358       .  A
C561        N566   1.366       .  A
N562        C563   1.349       .  A
C563        N564   1.366       .  A
N564        C565   1.371       .  A
C565        C580   1.491       .  S
C565        N566   1.361       .  A
O567       Ni573   1.954       .  S
O567        C588   1.280       .  A
O568       Ni591   1.926       .  S
O568        C577   1.273       .  A
O569       Ni573   1.880       .  S
O569       Ni591   1.893       .  S
O569       Ni585   1.901       .  S
O569        H592   0.966       .  S
C570        O587   1.273       .  A
C570        O579   1.274       .  A
C570        C595   1.461       .  S
O571       Ni590   1.900       .  S
O571        C577   1.266       .  A
O572       Ni590   1.897       .  S
O572        C574   1.266       .  A
Ni573       O576   1.930       .  S
Ni573       O578   1.909       .  S
C574        O584   1.284       .  A
C574        C607   1.498       .  S
O575       Ni591   1.911       .  S
O575        C581   1.276       .  A
O576        C581   1.284       .  A
C577        C603   1.459       .  S
O578        C580   1.270       .  A
O579       Ni590   1.907       .  S
C580        O586   1.285       .  A
C581        C615   1.450       .  S
H582        O583   0.967       .  S
O583       Ni591   1.917       .  S
O583       Ni585   1.902       .  S
O583       Ni590   1.891       .  S
O584       Ni585   1.979       .  S
Ni585       O589   1.903       .  S
Ni585       O587   1.917       .  S
O586       Ni591   1.963       .  S
C588        O589   1.273       .  A
C588        C621   1.476       .  S
C593        C853   1.475       .  S
C593        N594   1.349       .  A
N594        C595   1.354   1_545  A
C595        N596   1.360   1_565  A
C597        N598   1.363       .  A
C599        C833   1.481       .  S
C599        N600   1.362       .  A
C599       N1476   1.364       .  A
N600        C601   1.358       .  A
C601        N602   1.348       .  A
N602       C1475   1.357       .  A
C603       N1474   1.357       .  A
C603        N604   1.359       .  A
N604       C1471   1.365       .  A
C605        C682   1.483       .  S
C605       N1478   1.374       .  A
C605        N610   1.357       .  A
N606       C1477   1.374       .  A
N606        C607   1.370       .  A
C607       N1480   1.369       .  A
N608       C1479   1.369       .  A
N608        C609   1.359       .  A
C609        N610   1.348       .  A
C611        C653   1.436       .  S
C611        N612   1.347       .  A
C611        N616   1.353       .  A
N612        C613   1.343       .  A
C613        N614   1.358       .  A
N614        C615   1.360       .  A
C615        N616   1.351       .  A
C617        C633   1.492       .  S
C617        N622   1.358       .  A
N618        C619   1.373       .  A
N620        C621   1.365   1_545  A
C621        N622   1.352   1_565  A
C623        H624   1.101       .  S
C623        C629   1.578       .  S
C623        C628   1.579       .  S
C623       C1063   1.545   1_565  S
C625        H626   1.105       .  S
C625        C631   1.548       .  S
C625       C1066   1.571   1_565  S
C625        C632   1.566       .  S
C627       C1059   1.541   1_455  S
C627        C662   1.488       .  S
C627        C630   1.370       .  D
C628        C673   1.548       .  S
C628        C631   1.386       .  D
C629        C642   1.565       .  S
C629        C632   1.400       .  D
C630       C1061   1.567   1_455  S
C630        C733   1.536       .  S
C631        C713   1.510       .  S
C632        C702   1.532       .  S
C633        C634   1.418       .  A
C634        C635   1.412       .  A
C634       Br646   1.931       .  S
C635        C636   1.408       .  A
C635       Br650   1.928   1_545  S
C636        C639   1.499       .  S
C637        C638   1.414       .  A
C637       Br645   1.925       .  S
C638       Br649   1.929       .  S
C639        C640   1.395   1_545  A
C640        C641   1.412       .  A
C640       Br651   1.946       .  S
C641        C642   1.435       .  A
C641       Br647   1.899       .  S
C643        C644   1.425       .  A
C643       Br652   1.922       .  S
C644       Br648   1.936       .  S
C653        C654   1.399       .  A
C653        C658   1.409       .  A
C654        C655   1.393       .  A
C654       Br666   1.929       .  S
C655        C656   1.410       .  A
C655       Br670   1.933       .  S
C656        C659   1.447       .  S
C656        C657   1.399       .  A
C657        C658   1.392       .  A
C657       Br665   1.930       .  S
C658       Br669   1.933       .  S
C659        C660   1.395       .  A
C659        C664   1.394       .  A
C660        C661   1.399       .  A
C660       Br671   1.934       .  S
C661        C662   1.416       .  A
C662        C663   1.409       .  A
C663        C664   1.388       .  A
C663       Br672   1.895       .  S
C664       Br668   1.939       .  S
C673       C1546   1.426       .  A
C673        C678   1.416       .  A
C674       C1545   1.426       .  A
C674        C675   1.418       .  A
C674       Br686   1.908   1_655  S
C675       C1548   1.405       .  A
C675       Br690   1.934   1_655  S
C676        C679   1.499       .  S
C676       C1547   1.405       .  A
C676        C677   1.404       .  A
C677        C678   1.415       .  A
C677       Br685   1.929       .  S
C678       Br689   1.919       .  S
C679       C1552   1.412       .  A
C679        C684   1.414       .  A
C680       C1551   1.412       .  A
C680        C681   1.412       .  A
C680       Br691   1.929       .  S
C681       C1554   1.413   1_655  A
C681       Br687   1.932       .  S
C682       C1553   1.413       .  A
C682        C683   1.409       .  A
C683        C684   1.412       .  A
C683       Br692   1.929       .  S
C684       Br688   1.929       .  S
C693        C694   1.416       .  A
C694        C695   1.406       .  A
C694       Br706   1.932       .  S
C695        C696   1.405       .  A
C695       Br710   1.927       .  S
C696        C699   1.479       .  S
C697        C698   1.408       .  A
C697       Br705   1.929       .  S
C698       Br709   1.930       .  S
C699        C700   1.405       .  A
C700        C701   1.421       .  A
C700       Br711   1.929       .  S
C701        C702   1.433       .  A
C701       Br707   1.927       .  S
C703        C704   1.396       .  A
C703       Br712   1.905       .  S
C704       Br708   1.949       .  S
C713        C714   1.417       .  A
C713       C1590   1.419       .  A
C714        C715   1.408       .  A
C714       Br726   1.902       .  S
C715        C716   1.401       .  A
C715       Br730   1.934       .  S
C716        C719   1.475       .  S
C716       C1589   1.398       .  A
C717       C1588   1.399   1_455  A
C717        C718   1.403       .  A
C717       Br725   1.936       .  S
C718       C1585   1.418   1_455  A
C718       Br729   1.903       .  S
C719        C720   1.407       .  A
C719       C1596   1.410       .  A
C720        C721   1.403       .  A
C720       Br731   1.930       .  S
C721        C722   1.411       .  A
C721       Br727   1.933       .  S
C722       C1595   1.405       .  A
C723       C1594   1.405       .  A
C723        C724   1.404       .  A
C723       Br732   1.928       .  S
C724       C1591   1.410       .  A
C724       Br728   1.929       .  S
C733        C734   1.421       .  A
C733        C738   1.420       .  A
C734        C735   1.412       .  A
C734       Br746   1.910       .  S
C735        C736   1.399       .  A
C735       Br750   1.931       .  S
C736        C739   1.478       .  S
C736        C737   1.397       .  A
C737        C738   1.407       .  A
C737       Br745   1.936       .  S
C738      Br1621   1.909       .  S
C739        C740   1.409       .  A
C739        C744   1.410       .  A
C740        C741   1.408       .  A
C740       Br751   1.929       .  S
C741        C742   1.410       .  A
C741       Br747   1.929       .  S
C742        C743   1.405       .  A
C743        C744   1.401       .  A
C743       Br752   1.933       .  S
C744       Br748   1.928       .  S
Br749      C1610   1.909       .  S
C753        C754   1.438       .  A
C753        C758   1.424       .  A
C754        C755   1.430       .  A
C754       Br766   1.923       .  S
C755        C756   1.409       .  A
C755       Br770   1.930       .  S
C756        C759   1.505       .  S
C756        C757   1.394       .  A
C757        C758   1.408       .  A
C757       Br765   1.942       .  S
C758       Br769   1.882       .  S
C759        C760   1.412       .  A
C759        C764   1.413       .  A
C760        C761   1.415       .  A
C760       Br771   1.930       .  S
C761        C762   1.415       .  A
C761       Br767   1.930       .  S
C762        C763   1.413       .  A
C763        C764   1.415       .  A
C763       Br772   1.929       .  S
C764       Br768   1.928       .  S
C773        C774   1.410       .  A
C773       C1650   1.409       .  A
C774        C775   1.400       .  A
C774       Br786   1.932       .  S
C775        C776   1.405       .  A
C775       Br790   1.927       .  S
C776        C779   1.468       .  S
C776       C1649   1.406       .  A
C777       C1648   1.406       .  A
C777        C778   1.401       .  A
C777       Br785   1.929       .  S
C778       C1645   1.409       .  A
C778       Br789   1.930       .  S
C779        C780   1.401       .  A
C779       C1656   1.399   1_455  A
C780        C781   1.411       .  A
C780       Br791   1.931       .  S
C781        C782   1.425       .  A
C781       Br787   1.921       .  S
C782       C1655   1.410   1_455  A
C783       C1654   1.410       .  A
C783        C784   1.393       .  A
C783       Br792   1.900       .  S
C784       C1651   1.398       .  A
C784       Br788   1.939       .  S
C793        C794   1.416       .  A
C794        C795   1.399       .  A
C794       Br806   1.898       .  S
C795        C796   1.396       .  A
C795       Br810   1.935       .  S
C796        C799   1.477       .  S
C797        C798   1.414       .  A
C797       Br805   1.929       .  S
C798       Br809   1.929       .  S
C799        C800   1.408       .  A
C799        C804   1.412       .  A
C800        C801   1.406       .  A
C800       Br811   1.928       .  S
C801        C802   1.409       .  A
C801       Br807   1.929       .  S
C802        C803   1.404       .  A
C803        C804   1.402       .  A
C813        C814   1.416       .  A
C813        C818   1.422       .  A
C814        C815   1.397       .  A
C814       Br826   1.895   1_565  S
C815        C816   1.396       .  A
C815       Br830   1.940       .  S
C816        C819   1.479       .  S
C816        C817   1.408       .  A
C817        C818   1.417       .  A
C817       Br825   1.928       .  S
C818       Br829   1.924       .  S
C819        C820   1.410       .  A
C819        C824   1.407       .  A
C820        C821   1.410       .  A
C820       Br831   1.928       .  S
C821        C822   1.411       .  A
C821       Br827   1.929       .  S
C822        C823   1.413       .  A
C823        C824   1.400       .  A
C823       Br832   1.938       .  S
C824       Br828   1.930       .  S
C833        C834   1.411       .  A
C833       C1710   1.416       .  A
C834        C835   1.406       .  A
C834       Br846   1.930       .  S
C835        C836   1.408       .  A
C835       Br850   1.930       .  S
C836        C839   1.483       .  S
C836       C1709   1.408       .  A
C837       C1708   1.408       .  A
C837        C838   1.409       .  A
C837       Br845   1.930       .  S
C838       C1705   1.416       .  A
C838       Br849   1.931       .  S
C839        C840   1.406       .  A
C839       C1716   1.398       .  A
C840        C841   1.415       .  A
C840       Br851   1.928       .  S
C841        C842   1.424       .  A
C841       Br847   1.924       .  S
C842       C1715   1.416       .  A
C843       C1714   1.416       .  A
C843        C844   1.402       .  A
C843       Br852   1.898       .  S
C844       C1711   1.398       .  A
C844       Br848   1.936       .  S
C853        C854   1.412       .  A
C854        C855   1.408       .  A
C854       Br866   1.932       .  S
C855        C856   1.411       .  A
C855       Br870   1.931   1_545  S
C856        C859   1.491       .  S
C857        C858   1.407       .  A
C857       Br865   1.925       .  S
C858       Br869   1.928       .  S
C859        C860   1.400   1_545  A
C860        C861   1.408       .  A
C860       Br871   1.933       .  S
C861        C862   1.420       .  A
C861       Br867   1.902       .  S
C863        C864   1.413       .  A
C863       Br872   1.922       .  S
C864       Br868   1.933       .  S
C873        H874   1.111       .  S
C873        C879   1.573       .  S
C873        C877   1.571       .  S
C875        H876   1.112       .  S
C875        C881   1.574   1_455  S
C875       C1318   1.564       .  S
C877       C1229   1.508       .  S
C877       C1316   1.383   1_545  D
C878       C1189   1.557       .  S
C878        C881   1.393       .  D
C879       C1218   1.519       .  S
C880       C1298   1.528       .  S
C880       C1313   1.381       .  D
C881       C1249   1.522       .  S
C882       C1311   1.565       .  S
C882       C1278   1.527       .  S
O883       Ni889   1.944       .  S
O883        C904   1.278       .  A
O884       Ni907   1.959       .  S
O884        C893   1.279       .  A
O885       Ni889   1.913       .  S
O885       Ni907   1.927   1_556  S
O885       Ni901   1.936       .  S
O885        H908   0.966       .  S
C886        O903   1.282       .  A
C886        O895   1.274       .  A
C886        C945   1.469       .  S
O887       Ni906   1.906       .  S
O887        C893   1.263       .  A
O888       Ni906   1.931       .  S
O888        C890   1.275   1_554  A
Ni889       O892   1.927       .  S
Ni889       O894   1.924       .  S
C890        O900   1.274       .  A
C890        C949   1.484       .  S
O891       Ni907   1.931   1_556  S
O891        C897   1.275       .  A
O892        C897   1.278       .  A
C893        C969   1.478       .  S
O894        C896   1.268   1_556  A
O895       Ni906   1.915       .  S
C896        O902   1.272       .  A
C896        C955   1.461       .  S
C897        C961   1.475       .  S
H898        O899   0.966       .  S
O899       Ni907   1.927       .  S
O899       Ni901   1.887   1_554  S
O899       Ni906   1.884       .  S
O900       Ni901   1.936       .  S
Ni901       O905   1.928       .  S
Ni901       O903   1.927   1_556  S
O902       Ni907   1.920       .  S
C904        O905   1.274       .  A
C904        C911   1.493       .  S
C909       C1198   1.497       .  S
C909        N910   1.359       .  A
C909        N914   1.359       .  A
N910        C911   1.364       .  A
C911        N912   1.372       .  A
N912        C913   1.371       .  A
C913        C925   1.493       .  S
C913        N914   1.363       .  A
O915       Ni921   1.914       .  S
O915        C936   1.270       .  A
O916       Ni939   1.933       .  S
O916        C925   1.277       .  A
O917       Ni921   1.887       .  S
O917       Ni939   1.884   1_554  S
O917       Ni933   1.912       .  S
O917        H940   0.966       .  S
C918        O935   1.272       .  A
C918        O927   1.279       .  A
C918        C951   1.464       .  S
O919       Ni938   1.945       .  S
O919        C925   1.279       .  A
O920       Ni938   1.929       .  S
O920        C922   1.269   1_556  A
Ni921       O924   1.918       .  S
Ni921       O926   1.915       .  S
C922        O932   1.269       .  A
C922        C967   1.460       .  S
O923       Ni939   1.921   1_554  S
O923        C929   1.280       .  A
O924        C929   1.277       .  A
O926        C928   1.268   1_554  A
O927       Ni938   1.926       .  S
C928        O934   1.278       .  A
C928        C963   1.473       .  S
C929        C943   1.464       .  S
H930        O931   0.966       .  S
O931       Ni939   1.926       .  S
O931       Ni933   1.918   1_556  S
O931       Ni938   1.910       .  S
O932       Ni933   1.908       .  S
Ni933       O937   1.939       .  S
Ni933       O935   1.919   1_554  S
O934       Ni939   1.933       .  S
C936        O937   1.273       .  A
C936        C957   1.467       .  S
C941       C1178   1.484       .  S
C941        N942   1.356       .  A
C941        N946   1.359       .  A
N942        C943   1.361       .  A
C943        N944   1.357       .  A
N944        C945   1.356       .  A
C945        N946   1.365       .  A
C947       C1238   1.462       .  S
C947        N948   1.363   1_565  A
C947       N1388   1.349       .  A
N948        C949   1.365       .  A
C949        N950   1.361   1_545  A
N950       C1387   1.362       .  A
C951       N1386   1.365       .  A
C951        N952   1.351       .  A
N952       C1383   1.351       .  A
C953       C1158   1.457       .  S
C953        N954   1.350       .  A
N954        C955   1.354       .  A
C955        N956   1.369       .  A
C957        N958   1.352       .  A
C959       C1209   1.459       .  S
C959        N964   1.350       .  A
N960        C961   1.357       .  A
N962        C963   1.366       .  A
C963        N964   1.350       .  A
C965       C1129   1.489       .  S
C965        N966   1.347       .  A
C965       N1406   1.361       .  A
N966        C967   1.352       .  A
C967        N968   1.369       .  A
N968       C1405   1.365       .  A
C969       N1404   1.364   1_545  A
C969        N970   1.365       .  A
N970       C1401   1.357   1_545  A
O971       Ni977   1.904       .  S
O971        C992   1.264       .  A
O972       Ni995   1.921       .  S
O972        C981   1.274       .  A
O973       Ni977   1.904       .  S
O973       Ni995   1.900       .  S
O973       Ni989   1.946       .  S
O973        H996   0.964       .  S
C974        O991   1.281       .  A
C974        O983   1.277       .  A
C974       C1049   1.436       .  S
O975       Ni994   1.943       .  S
O975        C981   1.277       .  A
O976       Ni994   1.938       .  S
O976        C978   1.270       .  A
Ni977       O980   1.924       .  S
Ni977       O982   1.932       .  S
C978        O988   1.274       .  A
C978        C999   1.495       .  S
O979       Ni995   1.906       .  S
O979        C985   1.274       .  A
O980        C985   1.274       .  A
C981       C1045   1.482       .  S
O982        C984   1.273       .  A
O983       Ni994   1.904       .  S
C984        O990   1.278       .  A
C984       C1055   1.496       .  S
C985       C1037   1.463       .  S
H986        O987   0.965       .  S
O987       Ni995   1.898       .  S
O987       Ni989   1.914       .  S
O987       Ni994   1.896       .  S
O988       Ni989   1.939       .  S
Ni989       O993   1.933       .  S
Ni989       O991   1.930       .  S
O990       Ni995   1.954       .  S
C992        O993   1.277       .  A
C992       C1033   1.464       .  S
C997       C1258   1.482       .  S
C997        N998   1.364       .  A
C997       N1002   1.369       .  A
N998        C999   1.357       .  A
C999       N1000   1.366       .  A
N1000      C1001   1.369       .  A
C1001      C1016   1.495       .  S
C1001      N1002   1.363       .  A
O1003     Ni1009   1.956       .  S
O1003      C1024   1.281       .  A
O1004     Ni1027   1.929       .  S
O1004      C1013   1.271       .  A
O1005     Ni1009   1.880       .  S
O1005     Ni1027   1.893       .  S
O1005     Ni1021   1.895       .  S
O1005      H1028   0.966       .  S
C1006      O1023   1.272       .  A
C1006      O1015   1.274       .  A
C1006      C1031   1.458       .  S
O1007     Ni1026   1.902       .  S
O1007      C1013   1.265       .  A
O1008     Ni1026   1.897       .  S
O1008      C1010   1.266       .  A
Ni1009     O1012   1.931       .  S
Ni1009     O1014   1.911       .  S
C1010      O1020   1.283       .  A
C1010      C1043   1.497       .  S
O1011     Ni1027   1.890       .  S
O1011      C1017   1.272       .  A
O1012      C1017   1.284       .  A
C1013      C1039   1.461       .  S
O1014      C1016   1.271       .  A
O1015     Ni1026   1.902       .  S
C1016      O1022   1.284       .  A
C1017      C1051   1.436       .  S
H1018      O1019   0.967       .  S
O1019     Ni1027   1.908       .  S
O1019     Ni1021   1.903       .  S
O1019     Ni1026   1.889       .  S
O1020     Ni1021   1.978       .  S
Ni1021     O1025   1.899       .  S
Ni1021     O1023   1.916       .  S
O1022     Ni1027   1.967       .  S
C1024      O1025   1.272       .  A
C1024      C1057   1.474       .  S
C1029      C1289   1.468       .  S
C1029      N1030   1.347       .  A
C1029      N1470   1.355       .  A
N1030      C1031   1.351       .  A
C1031      N1032   1.360       .  A
N1032      C1469   1.359       .  A
C1033      N1468   1.359       .  A
C1033      N1034   1.365       .  A
N1034      C1465   1.359       .  A
C1035      C1269   1.476       .  S
C1035      N1036   1.356   1_455  A
N1036      C1037   1.351       .  A
C1037      N1038   1.348   1_655  A
C1039      N1040   1.362       .  A
C1041      C1118   1.487       .  S
C1041      N1046   1.361   1_455  A
N1042      C1043   1.369       .  A
N1044      C1045   1.357   1_455  A
C1045      N1046   1.354       .  A
C1047      C1089   1.443       .  S
C1047      N1048   1.353       .  A
C1047      N1052   1.354       .  A
N1048      C1049   1.350       .  A
C1049      N1050   1.349       .  A
N1050      C1051   1.350       .  A
C1051      N1052   1.349       .  A
C1053      C1069   1.497       .  S
C1053      N1490   1.372       .  A
C1053      N1058   1.356       .  A
N1054      C1489   1.366       .  A
N1054      C1055   1.367       .  A
C1055      N1492   1.368       .  A
N1056      C1491   1.368       .  A
N1056      C1057   1.364       .  A
C1057      N1058   1.349       .  A
C1059      H1060   1.101       .  S
C1059      C1065   1.577       .  S
C1059      C1064   1.577       .  S
C1061      H1062   1.103       .  S
C1061      C1067   1.542       .  S
C1061      C1068   1.565       .  S
C1063      C1098   1.489       .  S
C1063      C1066   1.378       .  D
C1064      C1109   1.540       .  S
C1064      C1067   1.384       .  D
C1065      C1078   1.560       .  S
C1065      C1068   1.404       .  D
C1066      C1169   1.549       .  S
C1067      C1149   1.508       .  S
C1068      C1138   1.536       .  S
C1069      C1070   1.419       .  A
C1069      C1510   1.413       .  A
C1070      C1071   1.412       .  A
C1070     Br1082   1.932       .  S
C1071      C1072   1.409       .  A
C1071     Br1086   1.931       .  S
C1072      C1075   1.502       .  S
C1072      C1509   1.413       .  A
C1073      C1508   1.411       .  A
C1073      C1074   1.410       .  A
C1073     Br1081   1.916       .  S
C1074      C1505   1.412       .  A
C1074     Br1085   1.932       .  S
C1075      C1076   1.398       .  A
C1075      C1516   1.404       .  A
C1076      C1077   1.410       .  A
C1076     Br1087   1.941       .  S
C1077      C1078   1.433       .  A
C1077     Br1083   1.909       .  S
C1078      C1515   1.444       .  A
C1079      C1514   1.445   1_545  A
C1079      C1080   1.426       .  A
C1079     Br1088   1.918       .  S
C1080      C1511   1.401       .  A
C1080     Br1084   1.934       .  S
C1089      C1090   1.403       .  A
C1089      C1094   1.407       .  A
C1090      C1091   1.398       .  A
C1090     Br1102   1.930       .  S
C1091      C1092   1.408       .  A
C1091     Br1106   1.931       .  S
C1092      C1095   1.455       .  S
C1092      C1093   1.403       .  A
C1093      C1094   1.393       .  A
C1093     Br1101   1.933       .  S
C1094     Br1105   1.933       .  S
C1095      C1096   1.397       .  A
C1095      C1100   1.396       .  A
C1096      C1097   1.401       .  A
C1096     Br1107   1.937       .  S
C1097      C1098   1.416       .  A
C1097     Br1539   1.906   1_545  S
C1098      C1099   1.410       .  A
C1099      C1100   1.394       .  A
C1099     Br1108   1.893       .  S
C1100     Br1104   1.936       .  S
Br1103     C1533   1.899       .  S
C1109      C1114   1.417       .  A
C1110      C1111   1.418       .  A
C1110     Br1122   1.908       .  S
C1111     Br1126   1.934       .  S
C1112      C1115   1.499       .  S
C1112      C1113   1.404       .  A
C1113      C1114   1.414       .  A
C1113     Br1121   1.928       .  S
C1114     Br1125   1.917       .  S
C1115      C1120   1.414   1_655  A
C1116      C1117   1.414       .  A
C1116     Br1127   1.929       .  S
C1117     Br1123   1.929       .  S
C1118      C1119   1.409       .  A
C1119      C1120   1.411       .  A
C1119     Br1128   1.930       .  S
C1120     Br1124   1.929       .  S
C1129      C1130   1.418       .  A
C1129      C1570   1.416       .  A
C1130      C1131   1.408       .  A
C1130     Br1142   1.932       .  S
C1131      C1132   1.406       .  A
C1131     Br1146   1.927       .  S
C1132      C1135   1.484       .  S
C1132      C1569   1.407       .  A
C1133      C1568   1.407       .  A
C1133      C1134   1.408       .  A
C1133     Br1141   1.930   1_565  S
C1134      C1565   1.417       .  A
C1134     Br1145   1.931   1_565  S
C1135      C1136   1.405       .  A
C1135      C1576   1.395       .  A
C1136      C1137   1.422       .  A
C1136     Br1147   1.930       .  S
C1137      C1138   1.435       .  A
C1137     Br1143   1.929       .  S
C1138      C1575   1.428       .  A
C1139      C1574   1.424   1_545  A
C1139      C1140   1.392   1_545  A
C1139     Br1148   1.892       .  S
C1140      C1571   1.394       .  A
C1140     Br1144   1.952   1_565  S
C1149      C1150   1.418       .  A
C1150      C1151   1.405       .  A
C1150     Br1162   1.898       .  S
C1151      C1152   1.397       .  A
C1151     Br1166   1.934       .  S
C1152      C1155   1.467       .  S
C1153      C1154   1.401       .  A
C1153     Br1161   1.939       .  S
C1154     Br1165   1.898       .  S
C1155      C1156   1.404       .  A
C1156      C1157   1.399       .  A
C1156     Br1167   1.931       .  S
C1157      C1158   1.410       .  A
C1157     Br1163   1.932       .  S
C1159      C1160   1.402       .  A
C1159     Br1168   1.929       .  S
C1160     Br1164   1.929       .  S
C1169      C1170   1.418       .  A
C1169      C1174   1.422       .  A
C1170      C1171   1.417       .  A
C1170     Br1182   1.910       .  S
C1171      C1172   1.404       .  A
C1171     Br1186   1.928       .  S
C1172      C1175   1.493       .  S
C1172      C1173   1.399       .  A
C1173      C1174   1.414       .  A
C1173     Br1181   1.935       .  S
C1175      C1176   1.410       .  A
C1175      C1180   1.412       .  A
C1176      C1177   1.412       .  A
C1176     Br1187   1.929       .  S
C1177      C1178   1.412       .  A
C1177     Br1183   1.929       .  S
C1178      C1179   1.409       .  A
C1179      C1180   1.411       .  A
C1179     Br1188   1.929       .  S
C1180     Br1184   1.930       .  S
C1189      C1190   1.437       .  A
C1189      C1194   1.424       .  A
C1190      C1191   1.427       .  A
C1190     Br1202   1.923       .  S
C1191      C1192   1.407       .  A
C1191     Br1206   1.932       .  S
C1192      C1195   1.505       .  S
C1192      C1193   1.397       .  A
C1193      C1194   1.411       .  A
C1193     Br1201   1.939       .  S
C1194     Br1205   1.889   1_655  S
C1195      C1196   1.412       .  A
C1195      C1200   1.412       .  A
C1196      C1197   1.415       .  A
C1196     Br1207   1.929       .  S
C1197      C1198   1.414       .  A
C1197     Br1203   1.930       .  S
C1198      C1199   1.414       .  A
C1199      C1200   1.415       .  A
C1199     Br1208   1.930       .  S
C1200     Br1204   1.929       .  S
C1209      C1210   1.408       .  A
C1210      C1211   1.398       .  A
C1210     Br1222   1.933       .  S
C1211      C1212   1.406       .  A
C1211     Br1226   1.931       .  S
C1212      C1215   1.466       .  S
C1213      C1214   1.403       .  A
C1213     Br1221   1.929   1_455  S
C1214     Br1225   1.929   1_455  S
C1215      C1216   1.397       .  A
C1216      C1217   1.410       .  A
C1216     Br1227   1.933       .  S
C1217      C1218   1.430       .  A
C1217     Br1223   1.915       .  S
C1219      C1220   1.395       .  A
C1219     Br1228   1.899       .  S
C1220     Br1224   1.938       .  S
C1229      C1230   1.415       .  A
C1229      C1670   1.424   1_545  A
C1230      C1231   1.395       .  A
C1230     Br1242   1.901       .  S
C1231      C1232   1.396   1_545  A
C1231     Br1246   1.938       .  S
C1232      C1235   1.475       .  S
C1232      C1669   1.407       .  A
C1233      C1668   1.405       .  A
C1233      C1234   1.413       .  A
C1233     Br1241   1.929       .  S
C1234      C1665   1.421       .  A
C1234     Br1245   1.922       .  S
C1235      C1236   1.407       .  A
C1235      C1240   1.411       .  A
C1236      C1237   1.406   1_565  A
C1236     Br1247   1.929   1_565  S
C1237      C1238   1.409   1_545  A
C1237     Br1243   1.928       .  S
C1238      C1239   1.405       .  A
C1239      C1240   1.401       .  A
C1239     Br1684   1.931       .  S
C1240     Br1680   1.930       .  S
Br1244     C1676   1.932       .  S
Br1248     C1675   1.930       .  S
C1249      C1250   1.418       .  A
C1249      C1254   1.421       .  A
C1250      C1251   1.403       .  A
C1250     Br1262   1.899       .  S
C1251      C1252   1.399       .  A
C1251     Br1266   1.937       .  S
C1252      C1255   1.491       .  S
C1252      C1253   1.410       .  A
C1253      C1254   1.419       .  A
C1253     Br1261   1.926       .  S
C1254     Br1265   1.927       .  S
C1255      C1256   1.412       .  A
C1255      C1260   1.410       .  A
C1256      C1257   1.415       .  A
C1256     Br1267   1.928       .  S
C1257      C1258   1.412       .  A
C1257     Br1263   1.927       .  S
C1258      C1259   1.410       .  A
C1259      C1260   1.405       .  A
C1259     Br1268   1.932       .  S
C1260     Br1264   1.929       .  S
C1269      C1270   1.413       .  A
C1270      C1271   1.403       .  A
C1270     Br1282   1.932   1_455  S
C1271      C1272   1.406       .  A
C1271     Br1286   1.932   1_455  S
C1272      C1275   1.479       .  S
C1273      C1274   1.409       .  A
C1273     Br1281   1.929       .  S
C1274     Br1285   1.932       .  S
C1275      C1276   1.405   1_455  A
C1276      C1277   1.415       .  A
C1276     Br1287   1.928       .  S
C1277      C1278   1.427   1_655  A
C1277     Br1283   1.925       .  S
C1279      C1280   1.400       .  A
C1279     Br1288   1.893       .  S
C1280     Br1284   1.939       .  S
C1289      C1290   1.412       .  A
C1289      C1730   1.404       .  A
C1290      C1291   1.403       .  A
C1290     Br1302   1.932       .  S
C1291      C1292   1.406       .  A
C1291     Br1306   1.931       .  S
C1292      C1295   1.480       .  S
C1292      C1729   1.412       .  A
C1293      C1728   1.415       .  A
C1293      C1294   1.408       .  A
C1293     Br1301   1.931       .  S
C1294      C1725   1.406       .  A
C1294     Br1305   1.928       .  S
C1295      C1296   1.397       .  A
C1295      C1736   1.404       .  A
C1296      C1297   1.402       .  A
C1296     Br1307   1.933       .  S
C1297      C1298   1.416       .  A
C1297     Br1303   1.897       .  S
C1298      C1735   1.427       .  A
C1299      C1734   1.435   1_545  A
C1299      C1300   1.416       .  A
C1299     Br1308   1.922       .  S
C1300      C1731   1.403       .  A
C1300     Br1304   1.936       .  S
C1309      H1310   1.112       .  S
C1309      C1315   1.568       .  S
C1309      C1313   1.570       .  S
C1311      H1312   1.111   1_545  S
C1311      C1317   1.580   1_445  S
C1313      C1665   1.516       .  S
C1314      C1625   1.561       .  S
C1314      C1317   1.391       .  D
C1315      C1654   1.514       .  S
C1316      C1734   1.542       .  S
C1317      C1685   1.514       .  S
C1318      C1714   1.524       .  S
O1319     Ni1325   1.955       .  S
O1319      C1340   1.280       .  A
O1320     Ni1343   1.967       .  S
O1320      C1329   1.283       .  A
O1321     Ni1325   1.920       .  S
O1321     Ni1343   1.934   1_556  S
O1321     Ni1337   1.934   1_556  S
O1321      H1344   0.966       .  S
C1322      O1339   1.278       .  A
C1322      O1331   1.276       .  A
C1322      C1381   1.462       .  S
O1323     Ni1342   1.911       .  S
O1323      C1329   1.264       .  A
O1324     Ni1342   1.928       .  S
O1324      C1326   1.273   1_554  A
Ni1325     O1328   1.933       .  S
Ni1325     O1330   1.923       .  S
C1326      O1336   1.276       .  A
C1326      C1385   1.483       .  S
O1327     Ni1343   1.926   1_556  S
O1327      C1333   1.274       .  A
O1328      C1333   1.279       .  A
C1329      C1405   1.487       .  S
O1330      C1332   1.269   1_556  A
O1331     Ni1342   1.915       .  S
C1332      O1338   1.272       .  A
C1332      C1391   1.463       .  S
C1333      C1397   1.477       .  S
H1334      O1335   0.966       .  S
O1335     Ni1343   1.919       .  S
O1335     Ni1337   1.891       .  S
O1335     Ni1342   1.887       .  S
O1336     Ni1337   1.938   1_556  S
Ni1337     O1341   1.932   1_554  S
Ni1337     O1339   1.918       .  S
O1338     Ni1343   1.923       .  S
C1340      O1341   1.274       .  A
C1340      C1347   1.503       .  S
C1345      C1634   1.498       .  S
C1345      N1346   1.364       .  A
C1345      N1350   1.356       .  A
N1346      C1347   1.368       .  A
C1347      N1348   1.375       .  A
N1348      C1349   1.373       .  A
C1349      C1361   1.494       .  S
C1349      N1350   1.360       .  A
O1351     Ni1357   1.918       .  S
O1351      C1372   1.271       .  A
O1352     Ni1375   1.934   1_556  S
O1352      C1361   1.276       .  A
O1353     Ni1357   1.883       .  S
O1353     Ni1375   1.884       .  S
O1353     Ni1369   1.905       .  S
O1353      H1376   0.966       .  S
C1354      O1371   1.271       .  A
C1354      O1363   1.277       .  A
C1354      C1387   1.456       .  S
O1355     Ni1374   1.941       .  S
O1355      C1361   1.278       .  A
O1356     Ni1374   1.928       .  S
O1356      C1358   1.267   1_556  A
Ni1357     O1360   1.922       .  S
Ni1357     O1362   1.915       .  S
C1358      O1368   1.267       .  A
C1358      C1403   1.456       .  S
O1359     Ni1375   1.902       .  S
O1359      C1365   1.275       .  A
O1360      C1365   1.279       .  A
O1362      C1364   1.268       .  A
O1363     Ni1374   1.920       .  S
C1364      O1370   1.278   1_554  A
C1364      C1399   1.471   1_554  S
C1365      C1379   1.456       .  S
H1366      O1367   0.966       .  S
O1367     Ni1375   1.920   1_556  S
O1367     Ni1369   1.918   1_556  S
O1367     Ni1374   1.911       .  S
O1368     Ni1369   1.903       .  S
Ni1369     O1373   1.942       .  S
Ni1369     O1371   1.912   1_554  S
O1370     Ni1375   1.930   1_556  S
C1372      O1373   1.274       .  A
C1372      C1393   1.471       .  S
C1377      C1614   1.464       .  S
C1377      N1378   1.353       .  A
C1377      N1382   1.352       .  A
N1378      C1379   1.358       .  A
C1379      N1380   1.360       .  A
N1380      C1381   1.356       .  A
C1381      N1382   1.357       .  A
C1383      C1674   1.462       .  S
C1383      N1384   1.359       .  A
N1384      C1385   1.361       .  A
C1385      N1386   1.365       .  A
C1387      N1388   1.347       .  A
C1389      C1594   1.465       .  S
C1389      N1390   1.352       .  A
N1390      C1391   1.356       .  A
C1391      N1392   1.368       .  A
C1393      N1394   1.355       .  A
C1395      C1645   1.460       .  S
C1395      N1400   1.347       .  A
N1396      C1397   1.359       .  A
N1398      C1399   1.366       .  A
C1399      N1400   1.348       .  A
C1401      C1565   1.484       .  S
C1401      N1402   1.345       .  A
N1402      C1403   1.352       .  A
C1403      N1404   1.367       .  A
C1405      N1406   1.367       .  A
O1407     Ni1413   1.895       .  S
O1407      C1428   1.262       .  A
O1408     Ni1431   1.913       .  S
O1408      C1417   1.272       .  A
O1409     Ni1413   1.904       .  S
O1409     Ni1431   1.891       .  S
O1409     Ni1425   1.950       .  S
O1409      H1432   0.964       .  S
C1410      O1427   1.279       .  A
C1410      O1419   1.280       .  A
C1410      C1485   1.448       .  S
O1411     Ni1430   1.941       .  S
O1411      C1417   1.276       .  A
O1412     Ni1430   1.926       .  S
O1412      C1414   1.267       .  A
Ni1413     O1416   1.921       .  S
Ni1413     O1418   1.939       .  S
C1414      O1424   1.277       .  A
C1414      C1435   1.487       .  S
O1415     Ni1431   1.921       .  S
O1415      C1421   1.278       .  A
O1416      C1421   1.272       .  A
C1417      C1481   1.475       .  S
O1418      C1420   1.275       .  A
O1419     Ni1430   1.912       .  S
C1420      O1426   1.278       .  A
C1420      C1491   1.505       .  S
C1421      C1473   1.472       .  S
H1422      O1423   0.965       .  S
O1423     Ni1431   1.913       .  S
O1423     Ni1425   1.914       .  S
O1423     Ni1430   1.899       .  S
O1424     Ni1425   1.938       .  S
Ni1425     O1429   1.934       .  S
Ni1425     O1427   1.934       .  S
O1426     Ni1431   1.959       .  S
C1428      O1429   1.275       .  A
C1428      C1469   1.457       .  S
C1433      C1694   1.475       .  S
C1433      N1434   1.358       .  A
C1433      N1438   1.367       .  A
N1434      C1435   1.349       .  A
C1435      N1436   1.367       .  A
N1436      C1437   1.371       .  A
C1437      C1452   1.492       .  S
C1437      N1438   1.361       .  A
O1439     Ni1445   1.953       .  S
O1439      C1460   1.280       .  A
O1440     Ni1463   1.925       .  S
O1440      C1449   1.273       .  A
O1441     Ni1445   1.879       .  S
O1441     Ni1463   1.893       .  S
O1441     Ni1457   1.901       .  S
O1441      H1464   0.966       .  S
C1442      O1459   1.273       .  A
C1442      O1451   1.274       .  A
C1442      C1467   1.462       .  S
O1443     Ni1462   1.901       .  S
O1443      C1449   1.267       .  A
O1444     Ni1462   1.898       .  S
O1444      C1446   1.266       .  A
Ni1445     O1448   1.929       .  S
Ni1445     O1450   1.908       .  S
C1446      O1456   1.284       .  A
C1446      C1479   1.499       .  S
O1447     Ni1463   1.911       .  S
O1447      C1453   1.277       .  A
O1448      C1453   1.284       .  A
C1449      C1475   1.458       .  S
O1450      C1452   1.270       .  A
O1451     Ni1462   1.908       .  S
C1452      O1458   1.286       .  A
C1453      C1487   1.450       .  S
H1454      O1455   0.967       .  S
O1455     Ni1463   1.917       .  S
O1455     Ni1457   1.902       .  S
O1455     Ni1462   1.892       .  S
O1456     Ni1457   1.980       .  S
Ni1457     O1461   1.902       .  S
Ni1457     O1459   1.918       .  S
O1458     Ni1463   1.965       .  S
C1460      O1461   1.273       .  A
C1460      C1493   1.475       .  S
C1465      C1725   1.475       .  S
C1465      N1466   1.349       .  A
N1466      C1467   1.354   1_545  A
C1467      N1468   1.360   1_565  A
C1469      N1470   1.363       .  A
C1471      C1705   1.482       .  S
C1471      N1472   1.362   1_455  A
N1472      C1473   1.358       .  A
C1473      N1474   1.348   1_655  A
C1475      N1476   1.359       .  A
C1477      C1554   1.483       .  S
C1477      N1482   1.357   1_455  A
N1478      C1479   1.370       .  A
N1480      C1481   1.358   1_455  A
C1481      N1482   1.348       .  A
C1483      C1525   1.436       .  S
C1483      N1484   1.348       .  A
C1483      N1488   1.352       .  A
N1484      C1485   1.344       .  A
C1485      N1486   1.358       .  A
N1486      C1487   1.361       .  A
C1487      N1488   1.351       .  A
C1489      C1505   1.492       .  S
C1489      N1494   1.357       .  A
N1490      C1491   1.373       .  A
N1492      C1493   1.365   1_545  A
C1493      N1494   1.352   1_565  A
C1495      H1496   1.102       .  S
C1495      C1501   1.577       .  S
C1495      C1500   1.579       .  S
C1497      H1498   1.105       .  S
C1497      C1503   1.549       .  S
C1497      C1504   1.566       .  S
C1499      C1534   1.488       .  S
C1499      C1502   1.370       .  D
C1500      C1545   1.549       .  S
C1500      C1503   1.386       .  D
C1501      C1514   1.564       .  S
C1501      C1504   1.399       .  D
C1502      C1605   1.536       .  S
C1503      C1585   1.507       .  S
C1504      C1574   1.531       .  S
C1505      C1506   1.418       .  A
C1506      C1507   1.412       .  A
C1506     Br1518   1.931       .  S
C1507      C1508   1.408       .  A
C1507     Br1522   1.928   1_545  S
C1508      C1511   1.499       .  S
C1509      C1510   1.414       .  A
C1509     Br1517   1.926       .  S
C1510     Br1521   1.928       .  S
C1511      C1512   1.395   1_545  A
C1512      C1513   1.411       .  A
C1512     Br1523   1.946       .  S
C1513      C1514   1.434       .  A
C1513     Br1519   1.896       .  S
C1515      C1516   1.425       .  A
C1515     Br1524   1.922       .  S
C1516     Br1520   1.936       .  S
C1525      C1526   1.399       .  A
C1525      C1530   1.408       .  A
C1526      C1527   1.394       .  A
C1526     Br1538   1.929       .  S
C1527      C1528   1.410       .  A
C1527     Br1542   1.933       .  S
C1528      C1531   1.447       .  S
C1528      C1529   1.400       .  A
C1529      C1530   1.392       .  A
C1529     Br1537   1.930       .  S
C1530     Br1541   1.933       .  S
C1531      C1532   1.395       .  A
C1531      C1536   1.394       .  A
C1532      C1533   1.399       .  A
C1532     Br1543   1.934       .  S
C1533      C1534   1.415       .  A
C1534      C1535   1.410       .  A
C1535      C1536   1.389       .  A
C1535     Br1544   1.895       .  S
C1536     Br1540   1.939       .  S
C1545      C1550   1.415       .  A
C1546      C1547   1.419       .  A
C1546     Br1558   1.907       .  S
C1547     Br1562   1.935       .  S
C1548      C1551   1.499       .  S
C1548      C1549   1.405       .  A
C1549      C1550   1.415       .  A
C1549     Br1557   1.929       .  S
C1550     Br1561   1.920       .  S
C1551      C1556   1.414       .  A
C1552      C1553   1.412       .  A
C1552     Br1563   1.929       .  S
C1553     Br1559   1.932       .  S
C1554      C1555   1.409       .  A
C1555      C1556   1.412   1_455  A
C1555     Br1564   1.929       .  S
C1556     Br1560   1.929       .  S
C1565      C1566   1.416       .  A
C1566      C1567   1.406       .  A
C1566     Br1578   1.932       .  S
C1567      C1568   1.405       .  A
C1567     Br1582   1.926       .  S
C1568      C1571   1.479       .  S
C1569      C1570   1.408       .  A
C1569     Br1577   1.929       .  S
C1570     Br1581   1.930       .  S
C1571      C1572   1.405       .  A
C1572      C1573   1.421       .  A
C1572     Br1583   1.929       .  S
C1573      C1574   1.433       .  A
C1573     Br1579   1.927       .  S
C1575      C1576   1.396       .  A
C1575     Br1584   1.905       .  S
C1576     Br1580   1.949       .  S
C1585      C1586   1.416       .  A
C1586      C1587   1.408       .  A
C1586     Br1598   1.904       .  S
C1587      C1588   1.402       .  A
C1587     Br1602   1.933       .  S
C1588      C1591   1.476       .  S
C1589      C1590   1.403       .  A
C1589     Br1597   1.936       .  S
C1590     Br1601   1.901       .  S
C1591      C1592   1.407       .  A
C1592      C1593   1.403       .  A
C1592     Br1603   1.930       .  S
C1593      C1594   1.411       .  A
C1593     Br1599   1.933       .  S
C1595      C1596   1.404       .  A
C1595     Br1604   1.928       .  S
C1596     Br1600   1.929       .  S
C1605      C1606   1.421       .  A
C1605      C1610   1.420       .  A
C1606      C1607   1.412       .  A
C1606     Br1618   1.910       .  S
C1607      C1608   1.399       .  A
C1607     Br1622   1.931       .  S
C1608      C1611   1.477       .  S
C1608      C1609   1.397       .  A
C1609      C1610   1.407       .  A
C1609     Br1617   1.936       .  S
C1611      C1612   1.409       .  A
C1611      C1616   1.410       .  A
C1612      C1613   1.407       .  A
C1612     Br1623   1.929       .  S
C1613      C1614   1.410       .  A
C1613     Br1619   1.929       .  S
C1614      C1615   1.404       .  A
C1615      C1616   1.401       .  A
C1615     Br1624   1.932       .  S
C1616     Br1620   1.928       .  S
C1625      C1626   1.438       .  A
C1625      C1630   1.424       .  A
C1626      C1627   1.430       .  A
C1626     Br1638   1.923       .  S
C1627      C1628   1.409       .  A
C1627     Br1642   1.930       .  S
C1628      C1631   1.506       .  S
C1628      C1629   1.395       .  A
C1629      C1630   1.409       .  A
C1629     Br1637   1.942       .  S
C1630     Br1641   1.882       .  S
C1631      C1632   1.413       .  A
C1631      C1636   1.414       .  A
C1632      C1633   1.416       .  A
C1632     Br1643   1.930       .  S
C1633      C1634   1.415       .  A
C1633     Br1639   1.930       .  S
C1634      C1635   1.413       .  A
C1635      C1636   1.416       .  A
C1635     Br1644   1.929       .  S
C1636     Br1640   1.928       .  S
C1645      C1646   1.410       .  A
C1646      C1647   1.400       .  A
C1646     Br1658   1.932       .  S
C1647      C1648   1.405       .  A
C1647     Br1662   1.927       .  S
C1648      C1651   1.467       .  S
C1649      C1650   1.401       .  A
C1649     Br1657   1.929       .  S
C1650     Br1661   1.930   1_455  S
C1651      C1652   1.401       .  A
C1652      C1653   1.411       .  A
C1652     Br1663   1.931       .  S
C1653      C1654   1.426       .  A
C1653     Br1659   1.921       .  S
C1655      C1656   1.394       .  A
C1655     Br1664   1.900       .  S
C1656     Br1660   1.938       .  S
C1665      C1666   1.417       .  A
C1666      C1667   1.400       .  A
C1666     Br1678   1.898       .  S
C1667      C1668   1.396       .  A
C1667     Br1682   1.935       .  S
C1668      C1671   1.477       .  S
C1669      C1670   1.414       .  A
C1669     Br1677   1.929       .  S
C1670     Br1681   1.929       .  S
C1671      C1672   1.408       .  A
C1671      C1676   1.412       .  A
C1672      C1673   1.406       .  A
C1672     Br1683   1.928       .  S
C1673      C1674   1.409       .  A
C1673     Br1679   1.929       .  S
C1674      C1675   1.404       .  A
C1675      C1676   1.402       .  A
C1685      C1686   1.416       .  A
C1685      C1690   1.422       .  A
C1686      C1687   1.397       .  A
C1686     Br1698   1.895   1_565  S
C1687      C1688   1.396       .  A
C1687     Br1702   1.940       .  S
C1688      C1691   1.480       .  S
C1688      C1689   1.408       .  A
C1689      C1690   1.417       .  A
C1689     Br1697   1.928       .  S
C1690     Br1701   1.924       .  S
C1691      C1692   1.410       .  A
C1691      C1696   1.407       .  A
C1692      C1693   1.410       .  A
C1692     Br1703   1.928       .  S
C1693      C1694   1.412       .  A
C1693     Br1699   1.929       .  S
C1694      C1695   1.414       .  A
C1695      C1696   1.400       .  A
C1695     Br1704   1.938       .  S
C1696     Br1700   1.930       .  S
C1705      C1706   1.411       .  A
C1706      C1707   1.407       .  A
C1706     Br1718   1.930   1_455  S
C1707      C1708   1.408       .  A
C1707     Br1722   1.930   1_455  S
C1708      C1711   1.484       .  S
C1709      C1710   1.409       .  A
C1709     Br1717   1.930       .  S
C1710     Br1721   1.931       .  S
C1711      C1712   1.406   1_455  A
C1712      C1713   1.416       .  A
C1712     Br1723   1.928       .  S
C1713      C1714   1.424   1_655  A
C1713     Br1719   1.924       .  S
C1715      C1716   1.402       .  A
C1715     Br1724   1.898       .  S
C1716     Br1720   1.936       .  S
C1725      C1726   1.411       .  A
C1726      C1727   1.408       .  A
C1726     Br1738   1.932       .  S
C1727      C1728   1.411       .  A
C1727     Br1742   1.931   1_545  S
C1728      C1731   1.491       .  S
C1729      C1730   1.407       .  A
C1729     Br1737   1.925       .  S
C1730     Br1741   1.928       .  S
C1731      C1732   1.399   1_545  A
C1732      C1733   1.408       .  A
C1732     Br1743   1.933       .  S
C1733      C1734   1.420       .  A
C1733     Br1739   1.901       .  S
C1735      C1736   1.413       .  A
C1735     Br1744   1.922       .  S
C1736     Br1740   1.934       .  S
