geometry optimzed in LAMMPS
_audit_creation_date              2020-11-30 
_audit_creation_method            'lammps2cif' 
_symmetry_space_group_name_H-M    'P1' 
_symmetry_Int_Tables_number       1 
_symmetry_cell_setting            triclinic 
loop_ 
_symmetry_equiv_pos_as_xyz 
  x,y,z 
_cell_length_a                    58.6027171 
_cell_length_b                    58.36263632535119 
_cell_length_c                    23.051612684430907 
_cell_angle_alpha                 90.21246801100104 
_cell_angle_beta                  89.70777562936361 
_cell_angle_gamma                 89.76574236085548 
loop_ 
_atom_site_label 
_atom_site_type_symbol 
_atom_site_fract_x 
_atom_site_fract_y 
_atom_site_fract_z 
_atom_site_charge 
C1          C  0.47823701  0.92407607  0.34132651     0.85700
C2          C  0.47846857  0.91931996  0.40674952    -0.54500
C3          C  0.49722508  0.92775541  0.43624072     0.08700
C4          C  0.51444599  0.94008193  0.39512942     0.19600
C5          C  0.48105428  0.95029929  0.33816059    -0.55200
C6          C  0.49993144  0.95877050  0.36572464     0.08800
C7          C  0.50090564  0.91360988  0.32147304    -0.54700
C8          C  0.51989365  0.92260248  0.34613895     0.09300
H9          H  0.46452816  0.91048329  0.42742532     0.13900
H10         H  0.52985548  0.94691787  0.41679176    -0.00400
H11         H  0.46846536  0.96120636  0.31791673     0.14200
H12         H  0.50215608  0.90070566  0.28757183     0.14000
C13         C  0.48083379  0.92288404  0.59766425     0.85700
C14         C  0.47949598  0.94940935  0.59690813    -0.54500
C15         C  0.49687618  0.96007567  0.56763708     0.08700
C16         C  0.51406618  0.94317153  0.54048687     0.19600
C17         C  0.48200359  0.91619208  0.53390364    -0.55200
C18         C  0.49851890  0.92733463  0.50186258     0.08800
C19         C  0.50485960  0.91671739  0.61761473    -0.54700
C20         C  0.52234948  0.92834403  0.59271841     0.09300
H21         H  0.46555412  0.95867766  0.61700364     0.13900
H22         H  0.52800583  0.95195949  0.51689034    -0.00400
H23         H  0.46989611  0.90414747  0.51622881     0.14200
H24         H  0.50863443  0.90385539  0.64974584     0.14000
C25         C  0.52558502  0.01921937  0.34031997     0.85700
C26         C  0.52228181  0.02663988  0.40353583    -0.54500
C27         C  0.50386642  0.01724702  0.43243741     0.08700
C28         C  0.48894204  0.00240465  0.39054042     0.19600
C29         C  0.52486583  0.99259127  0.34216724    -0.55200
C30         C  0.50553160  0.98376873  0.36742824     0.08800
C31         C  0.50336476  0.02534504  0.30999874    -0.54700
C32         C  0.48420042  0.01727673  0.33575730     0.09300
H33         H  0.53495988  0.03747755  0.42338259     0.13900
H34         H  0.47328823  0.99526519  0.41068741    -0.00400
H35         H  0.53764522  0.98164280  0.32188080     0.14200
H36         H  0.50272404  0.03410272  0.26856427     0.14000
C37         C  0.52005396  0.02122152  0.59586578     0.85700
C38         C  0.51861180  0.99465925  0.59739990    -0.54500
C39         C  0.50069331  0.98545689  0.56791857     0.08700
C40         C  0.48546607  0.00377263  0.53863683     0.19600
C41         C  0.51986854  0.02711961  0.53141752    -0.55200
C42         C  0.50250668  0.01760334  0.49911228     0.08800
C43         C  0.49684330  0.02884017  0.61885616    -0.54700
C44         C  0.47861524  0.02008805  0.59020267     0.09300
H45         H  0.52989305  0.98373360  0.62224891     0.13900
H46         H  0.47071378  0.99630993  0.51537278    -0.00400
H47         H  0.53375376  0.03704837  0.51374614     0.14200
H48         H  0.49483679  0.03883579  0.65843830     0.14000
C49         C  0.94982261  0.44980655  0.34205136     0.85700
C50         C  0.97572074  0.45026611  0.33265593    -0.54500
C51         C  0.98742027  0.46826724  0.35696748     0.08700
C52         C  0.97068564  0.48563961  0.38650456     0.19600
C53         C  0.94673784  0.45226584  0.40839306    -0.55200
C54         C  0.95731976  0.47112371  0.43180369     0.08800
C55         C  0.94201770  0.47290523  0.31734529    -0.54700
C56         C  0.95252853  0.49159207  0.33959942     0.09300
H57         H  0.98362320  0.43650407  0.30849823     0.13900
H58         H  0.97922876  0.50081423  0.40545888    -0.00400
H59         H  0.93700182  0.44026068  0.43439458     0.14200
H60         H  0.93045327  0.47500165  0.28134779     0.14000
C61         C  0.95667308  0.50254278  0.57949506     0.85700
C62         C  0.94623164  0.48258305  0.61296503    -0.54500
C63         C  0.95276580  0.46131399  0.59541271     0.08700
C64         C  0.96879744  0.46180528  0.54177506     0.19600
C65         C  0.98265149  0.49830285  0.57756259    -0.55200
C66         C  0.98895183  0.47679310  0.56093643     0.08800
C67         C  0.94996841  0.49803979  0.51572878    -0.54700
C68         C  0.95667796  0.47679065  0.49524128     0.09300
H69         H  0.93415747  0.48533992  0.64821406     0.13900
H70         H  0.97422550  0.44463930  0.52583291    -0.00400
H71         H  0.99517545  0.51142310  0.58692845     0.14200
H72         H  0.94248633  0.51100714  0.48800525     0.14000
C73         C  0.05168580  0.45416306  0.32756188     0.85700
C74         C  0.05673163  0.45338870  0.39276154    -0.54500
C75         C  0.04506059  0.46917396  0.42637387     0.08700
C76         C  0.02995464  0.48567113  0.38858738     0.19600
C77         C  0.02572985  0.45263913  0.32513435    -0.55200
C78         C  0.01356950  0.46900871  0.35534096     0.08800
C79         C  0.05735367  0.47836041  0.31003692    -0.54700
C80         C  0.04679116  0.49534525  0.34093015     0.09300
H81         H  0.06783540  0.44059441  0.41094146     0.13900
H82         H  0.02092203  0.49899691  0.41425300    -0.00400
H83         H  0.01823423  0.43892095  0.30037021     0.14200
H84         H  0.06910166  0.48173865  0.27445807     0.14000
C85         C  0.04676127  0.44581422  0.58448567     0.85700
C86         C  0.05653643  0.46789741  0.61034071    -0.54500
C87         C  0.04869487  0.48794019  0.58763366     0.08700
C88         C  0.03245343  0.48392287  0.53528617     0.19600
C89         C  0.02059930  0.44974570  0.58801357    -0.55200
C90         C  0.01316508  0.46932449  0.56118900     0.08800
C91         C  0.05225627  0.44744049  0.51980292    -0.54700
C92         C  0.04468742  0.46708726  0.49234871     0.09300
H93         H  0.06668744  0.46806471  0.64942705     0.13900
H94         H  0.02621618  0.49993970  0.51500147    -0.00400
H95         H  0.00901279  0.43850395  0.61111820     0.14200
H96         H  0.06022140  0.43301408  0.49809399     0.14000
C97         C  0.92471331  0.33415161  0.15799418     0.85700
C98         C  0.95044964  0.33609165  0.14291466    -0.54500
C99         C  0.95736157  0.35735653  0.12654227     0.08700
C100        C  0.93791854  0.37486002  0.12407570     0.19600
C101        C  0.92044136  0.35283993  0.20303504    -0.55200
C102        C  0.92733589  0.37412356  0.18647351     0.08800
C103        C  0.91300296  0.34274202  0.10268297    -0.54700
C104        C  0.92076522  0.36334835  0.08160818     0.09300
H105        H  0.96258292  0.32209149  0.14718443     0.13900
H106        H  0.94366585  0.39219006  0.11101479    -0.00400
H107        H  0.91410930  0.34922555  0.24641176     0.14200
H108        H  0.90315446  0.33131651  0.07556627     0.14000
C109        C  0.91811982  0.33863357  0.74482194     0.85700
C110        C  0.91531094  0.35940340  0.70475032    -0.54500
C111        C  0.92631601  0.37884767  0.72354741     0.08700
C112        C  0.93825616  0.37550414  0.78380349     0.19600
C113        C  0.94410318  0.33630880  0.75438244    -0.55200
C114        C  0.95459666  0.35563422  0.77310863     0.08800
C115        C  0.90886267  0.34749970  0.80354159    -0.54700
C116        C  0.92051958  0.36540711  0.82682439     0.09300
H117        H  0.90546891  0.35848392  0.66524468     0.13900
H118        H  0.94716705  0.39070359  0.80143450    -0.00400
H119        H  0.95350262  0.32043179  0.74751525     0.14200
H120        H  0.89679187  0.33847422  0.83050351     0.14000
C121        C  0.08810018  0.33691015  0.16645409     0.85700
C122        C  0.09327686  0.35865169  0.20173013    -0.54500
C123        C  0.08525208  0.37886937  0.17789242     0.08700
C124        C  0.07290316  0.37453328  0.11876666     0.19600
C125        C  0.06197085  0.33785519  0.15839126    -0.55200
C126        C  0.05410007  0.35777953  0.13536279     0.08800
C127        C  0.09762910  0.34166922  0.10533361    -0.54700
C128        C  0.08885038  0.36046429  0.07905308     0.09300
H129        H  0.09955842  0.35700546  0.24534556     0.13900
H130        H  0.06644772  0.38962352  0.09517907    -0.00400
H131        H  0.05049711  0.32412895  0.17075749     0.14200
H132        H  0.10722008  0.32932878  0.07977385     0.14000
C133        C  0.08425910  0.32715011  0.75259086     0.85700
C134        C  0.05916725  0.32723652  0.77300546    -0.54500
C135        C  0.05116769  0.34796279  0.79141211     0.08700
C136        C  0.06903683  0.36693951  0.78879965     0.19600
C137        C  0.08549437  0.34610655  0.70639700    -0.55200
C138        C  0.07702959  0.36680474  0.72450480     0.08800
C139        C  0.09730678  0.33724476  0.80492067    -0.54700
C140        C  0.08861376  0.35741200  0.82642191     0.09300
H141        H  0.04818317  0.31236191  0.76923979     0.13900
H142        H  0.06264745  0.38392887  0.80368945    -0.00400
H143        H  0.09106852  0.34306277  0.66205136     0.14200
H144        H  0.10935365  0.32767755  0.83072274     0.14000
C145        C  0.36258568  0.87824815  0.16794350     0.85700
C146        C  0.38193444  0.87763189  0.21406987    -0.54500
C147        C  0.40121382  0.88968163  0.19863080     0.08700
C148        C  0.39986719  0.89945939  0.13647086     0.19600
C149        C  0.35963708  0.90397957  0.15525512    -0.55200
C150        C  0.37884575  0.91480459  0.13818118     0.08800
C151        C  0.37418994  0.86828308  0.11322428    -0.54700
C152        C  0.39349667  0.87940773  0.09547991     0.09300
H153        H  0.38119855  0.86871367  0.25464179     0.13900
H154        H  0.41513539  0.90918424  0.12293717    -0.00400
H155        H  0.34368060  0.91320733  0.16209206     0.14200
H156        H  0.36604266  0.85522954  0.08703722     0.14000
C157        C  0.36821414  0.87517321  0.76907091     0.85700
C158        C  0.36479982  0.90112969  0.77491641    -0.54500
C159        C  0.38334312  0.91282489  0.79359955     0.08700
C160        C  0.40430858  0.89753031  0.80307721     0.19600
C161        C  0.38889757  0.87257364  0.72792967    -0.55200
C162        C  0.40759263  0.88487696  0.74484537     0.08800
C163        C  0.37753578  0.86791858  0.82923687    -0.54700
C164        C  0.39624342  0.87989227  0.84804992     0.09300
H165        H  0.34892336  0.90960272  0.76360692     0.13900
H166        H  0.41991281  0.90663199  0.81555594    -0.00400
H167        H  0.38822099  0.86354346  0.68674224     0.14200
H168        H  0.36938692  0.85566042  0.85733066     0.14000
C169        C  0.36473440  0.04965881  0.17290228     0.85700
C170        C  0.36161253  0.02395949  0.16019086    -0.54500
C171        C  0.38078315  0.01299550  0.14172181     0.08700
C172        C  0.40139233  0.02879297  0.13434982     0.19600
C173        C  0.38492272  0.05054106  0.21509194    -0.55200
C174        C  0.40444533  0.03966347  0.19572607     0.08800
C175        C  0.37446146  0.05936257  0.11572261    -0.54700
C176        C  0.39294068  0.04788113  0.09375212     0.09300
H177        H  0.34578723  0.01483641  0.16826379     0.13900
H178        H  0.41661202  0.02004581  0.11601640    -0.00400
H179        H  0.38273215  0.05712596  0.25859714     0.14200
H180        H  0.36548339  0.07124600  0.08808791     0.14000
C181        C  0.35951607  0.04391804  0.76638008     0.85700
C182        C  0.37826785  0.04634890  0.72046519    -0.54500
C183        C  0.39917927  0.03823505  0.73706770     0.08700
C184        C  0.39916559  0.02878786  0.80080520     0.19600
C185        C  0.36018733  0.01836112  0.78266231    -0.55200
C186        C  0.38081561  0.01015702  0.80121532     0.08800
C187        C  0.36913218  0.05631204  0.82034475    -0.54700
C188        C  0.38882015  0.04720708  0.84149054     0.09300
H189        H  0.37451188  0.05173952  0.67660644     0.13900
H190        H  0.41623623  0.02369643  0.81564522    -0.00400
H191        H  0.34513595  0.00768153  0.77922305     0.14200
H192        H  0.35966162  0.06823647  0.84716950     0.14000
C193        C  0.63827652  0.88909358  0.17679502     0.85700
C194        C  0.64408064  0.91477975  0.17649390    -0.54500
C195        C  0.62657746  0.92886979  0.16179801     0.08700
C196        C  0.60486039  0.91602313  0.14600039     0.19600
C197        C  0.61667578  0.88712012  0.21540375    -0.55200
C198        C  0.59908855  0.90174151  0.20037702     0.08800
C199        C  0.62929266  0.88461281  0.11497488    -0.54700
C200        C  0.61226817  0.89902702  0.09826509     0.09300
H201        H  0.66123476  0.92102048  0.18390421     0.13900
H202        H  0.59147977  0.92796135  0.13239603    -0.00400
H203        H  0.61588820  0.87568348  0.25227001     0.14200
H204        H  0.63669102  0.87286312  0.08375473     0.14000
C205        C  0.63735099  0.89772071  0.77808532     0.85700
C206        C  0.61908249  0.89996776  0.72981442    -0.54500
C207        C  0.60014929  0.91256257  0.74596936     0.08700
C208        C  0.60171955  0.92180648  0.80910715     0.19600
C209        C  0.64236450  0.92265190  0.79526036    -0.55200
C210        C  0.62381861  0.93548898  0.81049376     0.08800
C211        C  0.62384459  0.88756029  0.82904753    -0.54700
C212        C  0.60622960  0.90092580  0.84895386     0.09300
H213        H  0.62055356  0.89231392  0.68713192     0.13900
H214        H  0.58689380  0.93232016  0.82170961    -0.00400
H215        H  0.65951361  0.92964626  0.79415124     0.14200
H216        H  0.63004591  0.87299276  0.85358499     0.14000
C217        C  0.64052317  0.06616024  0.16960984     0.85700
C218        C  0.62190174  0.06608944  0.21774012    -0.54500
C219        C  0.60329602  0.05293239  0.20449927     0.08700
C220        C  0.60468985  0.04152506  0.14390955     0.19600
C221        C  0.64540252  0.04062952  0.15886325    -0.55200
C222        C  0.62679352  0.02758926  0.14651325     0.08800
C223        C  0.62747143  0.07442543  0.11578286    -0.54700
C224        C  0.60973340  0.06078866  0.09956464     0.09300
H225        H  0.62334228  0.07480562  0.25915474     0.13900
H226        H  0.58919412  0.03142917  0.13432105    -0.00400
H227        H  0.66242607  0.03331648  0.16250738     0.14200
H228        H  0.63246289  0.08896949  0.08981912     0.14000
C229        C  0.62881693  0.07369756  0.78129193     0.85700
C230        C  0.61434860  0.08074455  0.83417598    -0.54500
C231        C  0.59821045  0.06508340  0.85049846     0.08700
C232        C  0.59587612  0.04525609  0.80541257     0.19600
C233        C  0.63642179  0.04897035  0.79312725    -0.55200
C234        C  0.61950666  0.03387628  0.80356876     0.08800
C235        C  0.61099510  0.07128306  0.73197770    -0.54700
C236        C  0.59368998  0.05627923  0.74464142     0.09300
H237        H  0.61934766  0.09471220  0.86259081     0.13900
H238        H  0.58162263  0.03339168  0.81520918    -0.00400
H239        H  0.65424648  0.04412491  0.79564842     0.14200
H240        H  0.61205316  0.07963860  0.69020564     0.14000
In241      In  0.91450144  0.19087264  0.21189277     1.36900
C242        C  0.95578150  0.18323501  0.16556807     0.76800
O243        O  0.90436036  0.22419013  0.16827582    -0.61600
O244        O  0.92343998  0.22572161  0.24586702    -0.52500
C245        C  0.88261693  0.16180672  0.17075425     0.69500
O246        O  0.90296956  0.15611145  0.18064309    -0.47400
C247        C  0.90980425  0.18471607  0.32624670     0.74200
O248        O  0.94153933  0.19664908  0.14248832    -0.59200
O249        O  0.89396208  0.19212994  0.29454064    -0.49300
O250        O  0.94808093  0.17244508  0.20857202    -0.55700
C251        C  0.91416438  0.23672971  0.20541480     0.84400
O252        O  0.87906120  0.18297650  0.17694059    -0.57600
O253        O  0.92791388  0.18016136  0.29894209    -0.60900
In254      In  0.78075168  0.06590247  0.22903259     1.36900
C255        C  0.78441514  0.02187769  0.19563133     0.76800
O256        O  0.78730865  0.08815984  0.30720882    -0.61600
O257        O  0.78360611  0.05247334  0.31929370    -0.52500
C258        C  0.81213342  0.09339071  0.18006731     0.69500
O259        O  0.81602868  0.07295923  0.19423918    -0.47400
C260        C  0.73635273  0.07545284  0.21618104     0.74200
O261        O  0.77040739  0.03570844  0.17342966    -0.59200
O262        O  0.74513762  0.07040513  0.26418873    -0.49300
O263        O  0.79779440  0.03101558  0.23144333    -0.55700
C264        C  0.78710361  0.07169591  0.34241248     0.84400
O265        O  0.79153865  0.09914238  0.18645873    -0.57600
O266        O  0.75052825  0.07586736  0.17462742    -0.60900
In267      In  0.90517737  0.19644609  0.69101419     1.36900
C268        C  0.94607921  0.18555539  0.73457575     0.76800
O269        O  0.92223577  0.18844743  0.60559955    -0.61600
O270        O  0.88645882  0.19233465  0.60651371    -0.52500
C271        C  0.87065443  0.17160733  0.73518647     0.69500
O272        O  0.89128952  0.16597270  0.74072030    -0.47400
C273        C  0.90289808  0.24201936  0.70187614     0.74200
O274        O  0.93453687  0.20256968  0.75189645    -0.59200
O275        O  0.90992352  0.23197870  0.65673817    -0.49300
O276        O  0.93575653  0.17314848  0.69825213    -0.55700
C277        C  0.90411096  0.18874525  0.57653223     0.84400
O278        O  0.86799608  0.19063690  0.71064248    -0.57600
O279        O  0.89700072  0.22859762  0.74201622    -0.60900
In280      In  0.76532728  0.07819948  0.69877182     1.36900
C281        C  0.76440296  0.03318199  0.72177784     0.76800
O282        O  0.73777625  0.08661141  0.76473313    -0.61600
O283        O  0.72900315  0.08651687  0.67597612    -0.52500
C284        C  0.79509085  0.10919043  0.73843234     0.69500
O285        O  0.79816992  0.08790354  0.74417408    -0.47400
C286        C  0.77919947  0.08012150  0.58886808     0.74200
O287        O  0.77373483  0.04738148  0.75571309    -0.59200
O288        O  0.76275583  0.09183002  0.60835742    -0.49300
O289        O  0.75556347  0.04225239  0.67778001    -0.55700
C290        C  0.72221364  0.08919306  0.72744034     0.84400
O291        O  0.77608699  0.11424542  0.71683870    -0.57600
O292        O  0.78876281  0.06757712  0.62592590    -0.60900
In293      In  0.90458291  0.75324514  0.71259505     1.36900
C294        C  0.94838664  0.76021376  0.74227132     0.76800
O295        O  0.90152171  0.72463793  0.77823499    -0.61600
O296        O  0.89038341  0.71825100  0.69301766    -0.52500
C297        C  0.87492662  0.78629996  0.74717448     0.69500
O298        O  0.89585392  0.78986220  0.73814572    -0.47400
C299        C  0.90386283  0.75282181  0.59681072     0.74200
O300        O  0.93369190  0.75315261  0.77811979    -0.59200
O301        O  0.89146743  0.76600046  0.62696025    -0.49300
O302        O  0.94032921  0.76462732  0.69308287    -0.55700
C303        C  0.89394822  0.71011377  0.74263153     0.84400
O304        O  0.86958749  0.76549821  0.74225489    -0.57600
O305        O  0.91669140  0.73996939  0.62619520    -0.60900
In306      In  0.77611585  0.88868996  0.70184534     1.36900
C307        C  0.77286281  0.93412124  0.72296041     0.76800
O308        O  0.79339576  0.89850085  0.61873232    -0.61600
O309        O  0.77351353  0.86831756  0.61973687    -0.52500
C310        C  0.80836308  0.86024674  0.74452255     0.69500
O311        O  0.81277484  0.87966661  0.72364115    -0.47400
C312        C  0.73244526  0.87938660  0.72578825     0.74200
O313        O  0.78405944  0.92092289  0.75579430    -0.59200
O314        O  0.74059445  0.87957177  0.67519814    -0.49300
O315        O  0.76404582  0.92397371  0.68050338    -0.55700
C316        C  0.78557858  0.88181543  0.59026329     0.84400
O317        O  0.78724069  0.85646883  0.74897588    -0.57600
O318        O  0.74722357  0.88240400  0.76501438    -0.60900
In319      In  0.90259613  0.74440409  0.23040712     1.36900
C320        C  0.94670615  0.75216240  0.20361789     0.76800
O321        O  0.91578058  0.73449161  0.31774403    -0.61600
O322        O  0.88751727  0.75708222  0.31522532    -0.52500
C323        C  0.87363850  0.77635340  0.18944446     0.69500
O324        O  0.89498863  0.77862513  0.18921139    -0.47400
C325        C  0.89273449  0.70109073  0.20014246     0.74200
O326        O  0.93589502  0.76310751  0.24222258    -0.59200
O327        O  0.89166442  0.70839644  0.25155769    -0.49300
O328        O  0.93450656  0.73812995  0.17612969    -0.55700
C329        C  0.90147859  0.74617260  0.34619642     0.84400
O330        O  0.86718703  0.75686988  0.20612447    -0.57600
O331        O  0.89733961  0.71647380  0.16359548    -0.60900
In332      In  0.77743193  0.87998781  0.22719622     1.36900
C333        C  0.78344261  0.92299084  0.18842155     0.76800
O334        O  0.74643259  0.87024200  0.17467801    -0.61600
O335        O  0.74222169  0.87634181  0.26467870    -0.52500
C336        C  0.80621381  0.84848325  0.18201204     0.69500
O337        O  0.81142018  0.86926220  0.18851634    -0.47400
C338        C  0.78532527  0.87943470  0.34111184     0.74200
O339        O  0.76640105  0.91098232  0.17496941    -0.59200
O340        O  0.78647132  0.86166930  0.31007942    -0.49300
O341        O  0.79829066  0.91221874  0.21682482    -0.55700
C342        C  0.73276952  0.87136484  0.21727648     0.84400
O343        O  0.78560162  0.84440605  0.19325485    -0.57600
O344        O  0.77995874  0.89725289  0.31385138    -0.60900
In345      In  0.08572292  0.18362222  0.69787601     1.36900
C346        C  0.04334788  0.17752484  0.73969227     0.76800
O347        O  0.09668799  0.21498449  0.74854223    -0.61600
O348        O  0.08255997  0.21962232  0.66507806    -0.52500
C349        C  0.11605144  0.15216059  0.73712423     0.69500
O350        O  0.09561994  0.14756224  0.72536538    -0.47400
C351        C  0.08879181  0.18031447  0.58288854     0.74200
O352        O  0.05703067  0.19162354  0.76222104    -0.59200
O353        O  0.10596992  0.18384773  0.61431078    -0.49300
O354        O  0.05208909  0.16567561  0.69958807    -0.55700
C355        C  0.09096280  0.22898183  0.70934928     0.84400
O356        O  0.12040668  0.17318656  0.73287981    -0.57600
O357        O  0.07056086  0.17738013  0.61078417    -0.60900
In358      In  0.21735986  0.05186718  0.70166294     1.36900
C359        C  0.21204589  0.00722464  0.72450038     0.76800
O360        O  0.20318282  0.04538566  0.61391769    -0.61600
O361        O  0.22406165  0.07453230  0.62517737    -0.52500
C362        C  0.18516773  0.08080855  0.74357613     0.69500
O363        O  0.18142596  0.06010793  0.73184379    -0.47400
C364        C  0.26227678  0.05443657  0.71872271     0.74200
O365        O  0.21798492  0.02131630  0.76339674    -0.59200
O366        O  0.25353080  0.04863136  0.67115333    -0.49300
O367        O  0.20835442  0.01628875  0.67606005    -0.55700
C368        C  0.21256480  0.06246492  0.59069980     0.84400
O369        O  0.20598502  0.08596785  0.74009265    -0.57600
O370        O  0.24787608  0.05910588  0.75812503    -0.60900
In371      In  0.09297065  0.19514528  0.21986942     1.36900
C372        C  0.05269061  0.18679855  0.17039608     0.76800
O373        O  0.07571656  0.18782630  0.30389343    -0.61600
O374        O  0.11168559  0.18993708  0.30425088    -0.52500
C375        C  0.12705335  0.16863427  0.18100051     0.69500
O376        O  0.10672619  0.16176296  0.18405072    -0.47400
C377        C  0.09683765  0.24068448  0.21521957     0.74200
O378        O  0.06624825  0.20178558  0.15149062    -0.59200
O379        O  0.08796003  0.23047704  0.25773751    -0.49300
O380        O  0.06084847  0.17460559  0.21027343    -0.55700
C381        C  0.09373698  0.18678677  0.33329684     0.84400
O382        O  0.12930612  0.18960262  0.19200339    -0.57600
O383        O  0.10322672  0.22752769  0.17461338    -0.60900
In384      In  0.22410736  0.06654468  0.22857148     1.36900
C385        C  0.21560600  0.02377745  0.19230379     0.76800
O386        O  0.25621638  0.07742229  0.18195745    -0.61600
O387        O  0.25921055  0.05847260  0.25963331    -0.52500
C388        C  0.19749928  0.10000487  0.18605884     0.69500
O389        O  0.19619293  0.07955639  0.16896949    -0.47400
C390        C  0.21532162  0.06869844  0.34180924     0.74200
O391        O  0.20430335  0.03394930  0.23139212    -0.59200
O392        O  0.22886422  0.08218487  0.31676427    -0.49300
O393        O  0.23041774  0.03627336  0.16820769    -0.55700
C394        C  0.26941094  0.06844795  0.21872277     0.84400
O395        O  0.21361766  0.10339707  0.22067104    -0.57600
O396        O  0.20600193  0.05456355  0.30828478    -0.60900
In397      In  0.22863850  0.86537013  0.69806397     1.36900
C398        C  0.21802041  0.90835803  0.72894082     0.76800
O399        O  0.25864805  0.86060090  0.75853865    -0.61600
O400        O  0.26454311  0.85900090  0.66803531    -0.52500
C401        C  0.19946751  0.83388473  0.74080974     0.69500
O402        O  0.19625583  0.85517797  0.74526748    -0.47400
C403        C  0.22443503  0.86735248  0.58318851     0.74200
O404        O  0.20686014  0.89683648  0.69250269    -0.59200
O405        O  0.21870504  0.84986976  0.61172789    -0.49300
O406        O  0.23357927  0.89705503  0.75364124    -0.55700
C407        C  0.27309705  0.85870021  0.71792302     0.84400
O408        O  0.21839488  0.82880507  0.71797657    -0.57600
O409        O  0.23268091  0.88321883  0.61341782    -0.60900
In410      In  0.08956237  0.74396736  0.72286006     1.36900
C411        C  0.04669670  0.75448983  0.75614782     0.76800
O412        O  0.07423422  0.73836644  0.63536768    -0.61600
O413        O  0.10305410  0.75993809  0.64128766    -0.52500
C414        C  0.12437773  0.77010262  0.75941307     0.69500
O415        O  0.10374823  0.77530870  0.76872056    -0.47400
C416        C  0.09717795  0.69913605  0.73663189     0.74200
O417        O  0.05801547  0.73867070  0.77982515    -0.59200
O418        O  0.09423624  0.70850677  0.68812759    -0.49300
O419        O  0.05829043  0.76616490  0.72101979    -0.55700
C420        C  0.08810932  0.75114255  0.60926054     0.84400
O421        O  0.12694019  0.75044485  0.73751646    -0.57600
O422        O  0.09700611  0.71300750  0.77895705    -0.60900
In423      In  0.22029050  0.88081892  0.21921632     1.36900
C424        C  0.21235778  0.92485347  0.19011105     0.76800
O425        O  0.22028150  0.89409689  0.31017003    -0.61600
O426        O  0.21844657  0.85826082  0.29799135    -0.52500
C427        C  0.18728432  0.85217488  0.18270786     0.69500
O428        O  0.18363975  0.87221296  0.20058474    -0.47400
C429        C  0.26465442  0.87269084  0.19798966     0.74200
O430        O  0.20272864  0.91469060  0.23142082    -0.59200
O431        O  0.25672388  0.87730437  0.24751559    -0.49300
O432        O  0.22533170  0.91195433  0.16046537    -0.55700
C433        C  0.21923938  0.87465199  0.33360865     0.84400
O434        O  0.20821452  0.84751822  0.17759087    -0.57600
O435        O  0.24971752  0.87226587  0.15856830    -0.60900
In436      In  0.08810812  0.75223691  0.24578464     1.36900
C437        C  0.04499226  0.75801217  0.21035795     0.76800
O438        O  0.09693416  0.72276680  0.18728444    -0.61600
O439        O  0.09063737  0.71586209  0.27589023    -0.52500
C440        C  0.11874634  0.78207367  0.20267158     0.69500
O441        O  0.09755706  0.78577640  0.20288188    -0.47400
C442        C  0.08878763  0.75705605  0.36048884     0.74200
O443        O  0.05397337  0.76970380  0.25019875    -0.59200
O444        O  0.10655224  0.75369564  0.33068155    -0.49300
O445        O  0.05866096  0.74425661  0.18560073    -0.55700
C446        C  0.09572554  0.70786436  0.22677808     0.84400
O447        O  0.12410284  0.76281614  0.22255665    -0.57600
O448        O  0.07078575  0.75832234  0.33121194    -0.60900
C449        C  0.91054229  0.60487170  0.15688319     0.85700
C450        C  0.91450696  0.58622546  0.20416175    -0.54500
C451        C  0.92636957  0.56695940  0.18568689     0.08700
C452        C  0.93276269  0.56855577  0.12037746     0.19600
C453        C  0.93469877  0.60950929  0.13461687    -0.55200
C454        C  0.94689544  0.59083350  0.11757255     0.08800
C455        C  0.89902475  0.59235740  0.10700603    -0.54700
C456        C  0.91040761  0.57370558  0.08532976     0.09300
H457        H  0.91089649  0.58871772  0.24947979     0.13900
H458        H  0.94168115  0.55328921  0.10396495    -0.00400
H459        H  0.94268824  0.62619715  0.13974300     0.14200
H460        H  0.88495390  0.60049027  0.08497041     0.14000
C461        C  0.90763101  0.61282811  0.77161415     0.85700
C462        C  0.93297784  0.61597765  0.78674151    -0.54500
C463        C  0.94422467  0.59636329  0.79927520     0.08700
C464        C  0.92920210  0.57498068  0.79543262     0.19600
C465        C  0.90883587  0.59554722  0.72012280    -0.55200
C466        C  0.92011302  0.57546691  0.73238895     0.08800
C467        C  0.89766532  0.59923137  0.82312083    -0.54700
C468        C  0.90939089  0.57966513  0.83818204     0.09300
H469        H  0.94170965  0.63235269  0.78424467     0.13900
H470        H  0.93780286  0.55887520  0.80360756    -0.00400
H471        H  0.90552410  0.60007531  0.67579863     0.14200
H472        H  0.88419603  0.60658713  0.84978774     0.14000
C473        C  0.08169642  0.61266863  0.17248747     0.85700
C474        C  0.05576207  0.61657171  0.16623399    -0.54500
C475        C  0.04375794  0.59722366  0.15372325     0.08700
C476        C  0.05839058  0.57589305  0.14675877     0.19600
C477        C  0.08333442  0.59347576  0.21862031    -0.55200
C478        C  0.07069352  0.57441097  0.20572977     0.08800
C479        C  0.08941542  0.60052522  0.11637120    -0.54700
C480        C  0.07620652  0.58249731  0.10010363     0.09300
H481        H  0.04764657  0.63325766  0.17085652     0.13900
H482        H  0.04862991  0.56017986  0.13590909    -0.00400
H483        H  0.09243028  0.59494922  0.25924724     0.14200
H484        H  0.10317599  0.60639879  0.08891418     0.14000
C485        C  0.08059410  0.60313138  0.77416146     0.85700
C486        C  0.08078224  0.58283146  0.73105050    -0.54500
C487        C  0.06704304  0.56471671  0.74676740     0.08700
C488        C  0.05529625  0.56867819  0.80696954     0.19600
C489        C  0.05520598  0.60891404  0.78367052    -0.55200
C490        C  0.04209784  0.59106645  0.80012588     0.08800
C491        C  0.08834384  0.59170934  0.83102548    -0.54700
C492        C  0.07469206  0.57435959  0.85015247     0.09300
H493        H  0.09075438  0.58295602  0.69133316     0.13900
H494        H  0.04369462  0.55504396  0.82179003    -0.00400
H495        H  0.04791716  0.62574877  0.77547027     0.14200
H496        H  0.10187653  0.59800092  0.85845732     0.14000
C497        C  0.06099302  0.59128378  0.94123944    -0.09900
C498        C  0.07184941  0.57277158  0.91418624     0.06300
C499        C  0.08294024  0.55635424  0.94890905    -0.03700
C500        C  0.08323609  0.55901744  0.00982796    -0.08100
C501        C  0.07291807  0.57815970  0.03666920     0.05400
C502        C  0.06145271  0.59427064  0.00100128    -0.03100
Br503      Br  0.04656114  0.62171865  0.02751361    -0.02800
H504        H  0.05327177  0.60453532  0.91500076     0.09300
H505        H  0.09234189  0.54665148  0.03600316     0.07300
Br506      Br  0.09892756  0.53099217  0.91478768    -0.03300
C507        C  0.98113607  0.59232590  0.74965295    -0.09900
C508        C  0.96922928  0.59567551  0.80155846     0.06300
C509        C  0.98128670  0.59984139  0.85290923    -0.03700
C510        C  0.00515099  0.59760052  0.85299655    -0.08100
C511        C  0.01698741  0.59257879  0.80117132     0.05400
C512        C  0.00476178  0.59062247  0.74906514    -0.03100
Br513      Br  0.01923745  0.58641242  0.67520509    -0.02800
H514        H  0.97195753  0.59120594  0.70908422     0.09300
H515        H  0.01437802  0.60047147  0.89284795     0.07300
Br516      Br  0.96576440  0.61130389  0.92051251    -0.03300
C517        C  0.98022035  0.60150179  0.17797316    -0.09900
C518        C  0.97194758  0.59184913  0.12594588     0.06300
C519        C  0.98772714  0.58375679  0.08452924    -0.03700
C520        C  0.01094401  0.58577436  0.09478239    -0.08100
C521        C  0.01902400  0.59639881  0.14505990     0.05400
C522        C  0.00352267  0.60399729  0.18754481    -0.03100
Br523      Br  0.01316111  0.61604679  0.26100120    -0.02800
H524        H  0.96845395  0.60697567  0.21173239     0.09300
H525        H  0.02280785  0.57885132  0.06308799     0.07300
Br526      Br  0.97949922  0.56842499  0.01513003    -0.03300
C527        C  0.92407798  0.55646283  0.99058929    -0.09900
C528        C  0.90623678  0.56613791  0.02301399     0.06300
C529        C  0.88616190  0.57158260  0.99180277    -0.03700
C530        C  0.88697284  0.57371952  0.93105553    -0.08100
C531        C  0.90719669  0.56949072  0.89905707     0.05400
C532        C  0.92499609  0.55793443  0.92979480    -0.03100
Br533      Br  0.95121178  0.54260035  0.89714658    -0.02800
H534        H  0.93788339  0.54802248  0.01242027     0.09300
H535        H  0.87162627  0.57914287  0.90902745     0.07300
Br536      Br  0.85658706  0.57355456  0.02800123    -0.03300
C537        C  0.09911311  0.67594462  0.15722584    -0.09900
C538        C  0.09839581  0.68303391  0.21498987     0.06300
C539        C  0.09775800  0.66620729  0.25866900    -0.03700
C540        C  0.09484114  0.64313301  0.24362160    -0.08100
C541        C  0.09310957  0.63589787  0.18523126     0.05400
C542        C  0.09632818  0.65304101  0.14164898    -0.03100
Br543      Br  0.09587718  0.64883679  0.05896589    -0.02800
H544        H  0.10037476  0.68862650  0.12313123     0.09300
H545        H  0.09227965  0.63127468  0.27878619     0.07300
Br546      Br  0.09991090  0.67336041  0.33987055    -0.03300
C547        C  0.17482114  0.81178303  0.16528585    -0.09900
C548        C  0.16881370  0.83490293  0.17471072     0.06300
C549        C  0.14550961  0.84025544  0.18465936    -0.03700
C550        C  0.12940309  0.82272146  0.18924990    -0.08100
C551        C  0.13577954  0.79959984  0.18529486     0.05400
C552        C  0.15865272  0.79419615  0.17080589    -0.03100
Br553      Br  0.16901223  0.76325646  0.15879837    -0.02800
H554        H  0.19244039  0.80717790  0.15663107     0.09300
H555        H  0.11190143  0.82725070  0.19964106     0.07300
Br556      Br  0.13416966  0.87083923  0.19671014    -0.03300
C557        C  0.09040065  0.66023962  0.69690859    -0.09900
C558        C  0.09883106  0.67380407  0.74229516     0.06300
C559        C  0.10645651  0.66280069  0.79282844    -0.03700
C560        C  0.10350193  0.63912272  0.79918999    -0.08100
C561        C  0.09252896  0.62560315  0.75641798     0.05400
C562        C  0.08689873  0.63668244  0.70347484    -0.03100
Br563      Br  0.07118502  0.62209809  0.64046679    -0.02800
H564        H  0.08471887  0.66829335  0.65721507     0.09300
H565        H  0.10826158  0.63222371  0.84056720     0.07300
Br566      Br  0.12011770  0.67908792  0.85626699    -0.03300
C567        C  0.10786676  0.76023912  0.51723591    -0.09900
C568        C  0.08747617  0.75491846  0.54624105     0.06300
C569        C  0.06717127  0.75280377  0.51417824    -0.03700
C570        C  0.06794813  0.75428321  0.45379408    -0.08100
C571        C  0.08862742  0.75817996  0.42440078     0.05400
C572        C  0.10860007  0.76202666  0.45687740    -0.03100
Br573      Br  0.13721554  0.77050405  0.42223493    -0.02800
H574        H  0.12347153  0.76257509  0.54152660     0.09300
H575        H  0.05230034  0.75193756  0.42969565     0.07300
Br576      Br  0.03774660  0.74894982  0.55003331    -0.03300
C577        C  0.22319778  0.84922338  0.48554059    -0.09900
C578        C  0.22200061  0.86914871  0.51968221     0.06300
C579        C  0.21901581  0.89052030  0.49227582    -0.03700
C580        C  0.21774048  0.89162045  0.43196923    -0.08100
C581        C  0.21949163  0.87181476  0.39742268     0.05400
C582        C  0.22215521  0.85033403  0.42491974    -0.03100
Br583      Br  0.22549031  0.82192489  0.38328984    -0.02800
H584        H  0.22558231  0.83271642  0.50604689     0.09300
H585        H  0.21544700  0.90824225  0.41200348     0.07300
Br586      Br  0.21561915  0.91889513  0.53419501    -0.03300
C587        C  0.15985113  0.82468640  0.77331557    -0.09900
C588        C  0.18163814  0.81671526  0.75676704     0.06300
C589        C  0.18482811  0.79280111  0.75004506    -0.03700
C590        C  0.16618491  0.77791770  0.75536941    -0.08100
C591        C  0.14401413  0.78609629  0.76737379     0.05400
C592        C  0.14118720  0.80980813  0.77848016    -0.03100
Br593      Br  0.11222076  0.82363614  0.79667463    -0.02800
H594        H  0.15694688  0.84287465  0.77951327     0.09300
H595        H  0.16895990  0.75981084  0.74743134     0.07300
Br596      Br  0.21379438  0.77904884  0.73129821    -0.03300
C597        C  0.19503547  0.98739316  0.21061020    -0.09900
C598        C  0.21242842  0.99883253  0.18026959     0.06300
C599        C  0.22754603  0.98558898  0.14558123    -0.03700
C600        C  0.22619478  0.96151996  0.14617100    -0.08100
C601        C  0.21002762  0.95008407  0.18079754     0.05400
C602        C  0.19367105  0.96346801  0.21124408    -0.03100
Br603      Br  0.16925415  0.95060908  0.25645191    -0.02800
H604        H  0.18284853  0.99708790  0.23641796     0.09300
H605        H  0.23869904  0.95169508  0.12172552     0.07300
Br606      Br  0.25129776  0.99888194  0.09910842    -0.03300
C607        C  0.14234407  0.13100505  0.14749874    -0.09900
C608        C  0.14659708  0.15288326  0.17053874     0.06300
C609        C  0.16880822  0.15789702  0.19054710    -0.03700
C610        C  0.18555871  0.14077247  0.19047315    -0.08100
C611        C  0.18082185  0.11836745  0.17162175     0.05400
C612        C  0.15911428  0.11381166  0.14776357    -0.03100
Br613      Br  0.15028168  0.08420593  0.11930557    -0.02800
H614        H  0.12547238  0.12685885  0.13169213     0.09300
H615        H  0.20209271  0.14474022  0.20868529     0.07300
Br616      Br  0.17709721  0.18668695  0.22526713    -0.03300
C617        C  0.22463879  0.97123874  0.77403992    -0.09900
C618        C  0.21059775  0.98201585  0.73296331     0.06300
C619        C  0.19714605  0.96816485  0.69629288    -0.03700
C620        C  0.19884565  0.94431643  0.69906052    -0.08100
C621        C  0.21409682  0.93343588  0.73701503     0.05400
C622        C  0.22668011  0.94722018  0.77604518    -0.03100
Br623      Br  0.24774445  0.93470157  0.83117964    -0.02800
H624        H  0.23504844  0.98154893  0.80265826     0.09300
H625        H  0.18881096  0.93425326  0.66903979     0.07300
Br626      Br  0.17627191  0.98046178  0.64023104    -0.03300
C627        C  0.19783387  0.05166393  0.49433788    -0.09900
C628        C  0.21091237  0.06683536  0.52774364     0.06300
C629        C  0.22318430  0.08435125  0.49937056    -0.03700
C630        C  0.22353768  0.08512091  0.43878633    -0.08100
C631        C  0.21168958  0.06892663  0.40533426     0.05400
C632        C  0.19799691  0.05255280  0.43392571    -0.03100
Br633      Br  0.17958160  0.03021785  0.39461050    -0.02800
H634        H  0.18786076  0.03842557  0.51522490     0.09300
H635        H  0.23372306  0.09815635  0.41775150     0.07300
Br636      Br  0.24036019  0.10744193  0.53944035    -0.03300
C637        C  0.11076397  0.17659732  0.49064267    -0.09900
C638        C  0.08978915  0.18049491  0.51888416     0.06300
C639        C  0.07035702  0.18560781  0.48531047    -0.03700
C640        C  0.07220412  0.18667506  0.42517826    -0.08100
C641        C  0.09318108  0.18332818  0.39678749     0.05400
C642        C  0.11265170  0.17793215  0.43011590    -0.03100
Br643      Br  0.14211760  0.17177577  0.39648944    -0.02800
H644        H  0.12582247  0.17259637  0.51579493     0.09300
H645        H  0.05710977  0.19107114  0.40058594     0.07300
Br646      Br  0.04109407  0.19357308  0.51786340    -0.03300
C647        C  0.17300451  0.12128077  0.76198080    -0.09900
C648        C  0.16677131  0.09820679  0.75453944     0.06300
C649        C  0.14324402  0.09309287  0.74972066    -0.03700
C650        C  0.12704766  0.11089402  0.74763420    -0.08100
C651        C  0.13350243  0.13408527  0.75034301     0.05400
C652        C  0.15681844  0.13907455  0.75985456    -0.03100
Br653      Br  0.16830270  0.16971331  0.76721917    -0.02800
H654        H  0.19083492  0.12571518  0.76661869     0.09300
H655        H  0.10929301  0.10649034  0.74130174     0.07300
Br656      Br  0.13178970  0.06239895  0.74277026    -0.03300
C657        C  0.89936984  0.64410738  0.12210688    -0.09900
C658        C  0.89909767  0.62842989  0.16896269     0.06300
C659        C  0.89042625  0.63672439  0.22268925    -0.03700
C660        C  0.88710991  0.66042617  0.23078771    -0.08100
C661        C  0.89086834  0.67622572  0.18574196     0.05400
C662        C  0.89524028  0.66752275  0.12970264    -0.03100
Br663      Br  0.89682581  0.68636515  0.06157437    -0.02800
H664        H  0.90441628  0.63827226  0.07921610     0.09300
H665        H  0.88199447  0.66659011  0.27331006     0.07300
Br666      Br  0.88029488  0.61776189  0.28528166    -0.03300
C667        C  0.00965917  0.73980282  0.17178404    -0.09900
C668        C  0.02009977  0.75889677  0.19764209     0.06300
C669        C  0.00606309  0.77718499  0.21670986    -0.03700
C670        C  0.98225396  0.77493484  0.21608032    -0.08100
C671        C  0.97175291  0.75507671  0.19434802     0.05400
C672        C  0.98579771  0.73788207  0.16916652    -0.03100
Br673      Br  0.97387619  0.71066923  0.13360282    -0.02800
H674        H  0.02008063  0.72575502  0.15571666     0.09300
H675        H  0.97187132  0.78877221  0.23344735     0.07300
Br676      Br  0.01825094  0.80599785  0.24214251    -0.03300
C677        C  0.84666301  0.83569883  0.17691237    -0.09900
C678        C  0.82352153  0.83027301  0.16945534     0.06300
C679        C  0.81768376  0.80707420  0.15972846    -0.03700
C680        C  0.83451566  0.78991459  0.16300223    -0.08100
C681        C  0.85736534  0.79524278  0.17547138     0.05400
C682        C  0.86343640  0.81860319  0.18066667    -0.03100
Br683      Br  0.89359265  0.82862779  0.20065057    -0.02800
H684        H  0.85163479  0.85332081  0.18434350     0.09300
H685        H  0.82951083  0.77217798  0.15783177     0.07300
Br686      Br  0.78709557  0.79743962  0.14318980    -0.03300
C687        C  0.78341894  0.85929862  0.43546706    -0.09900
C688        C  0.78879791  0.87920728  0.40443810     0.06300
C689        C  0.79604916  0.89881405  0.43502772    -0.03700
C690        C  0.79609050  0.89874151  0.49559666    -0.08100
C691        C  0.78895184  0.87942585  0.52688456     0.05400
C692        C  0.78343069  0.85920565  0.49614486    -0.03100
Br693      Br  0.77576111  0.83088335  0.53355882    -0.02800
H694        H  0.77831619  0.84393905  0.41247996     0.09300
H695        H  0.80092990  0.91425991  0.51825824     0.07300
Br696      Br  0.80640583  0.92612966  0.39697401    -0.03300
C697        C  0.88470963  0.67034568  0.71030709    -0.09900
C698        C  0.89128893  0.68523127  0.75535162     0.06300
C699        C  0.89727565  0.67552174  0.80907839    -0.03700
C700        C  0.89982200  0.65177873  0.81369565    -0.08100
C701        C  0.89681353  0.63690269  0.76574706     0.05400
C702        C  0.88671255  0.64642506  0.71539178    -0.03100
Br703      Br  0.87290178  0.62903195  0.65429205    -0.02800
H704        H  0.87839443  0.67737427  0.66999889     0.09300
H705        H  0.90606391  0.64498082  0.85435716     0.07300
Br706      Br  0.90349756  0.69332789  0.87742417    -0.03300
C707        C  0.98335221  0.74603804  0.79306286    -0.09900
C708        C  0.97322535  0.76175389  0.75478151     0.06300
C709        C  0.98749633  0.77689617  0.72400986    -0.03700
C710        C  0.01121689  0.77507457  0.72867803    -0.08100
C711        C  0.02156724  0.75821488  0.76334776     0.05400
C712        C  0.00724334  0.74401881  0.79735040    -0.03100
Br713      Br  0.01884089  0.72074279  0.84805818    -0.02800
H714        H  0.97267354  0.73434296  0.81735774     0.09300
H715        H  0.02163914  0.78644521  0.70274678     0.07300
Br716      Br  0.97575883  0.80048619  0.67435976    -0.03300
C717        C  0.91078998  0.73167715  0.50487617    -0.09900
C718        C  0.90309529  0.75175552  0.53260872     0.06300
C719        C  0.89454420  0.76987011  0.49837294    -0.03700
C720        C  0.89363706  0.76745680  0.43791722    -0.08100
C721        C  0.90148918  0.74740747  0.41032038     0.05400
C722        C  0.90998311  0.72931629  0.44456341    -0.03100
Br723      Br  0.91953885  0.70039564  0.41231935    -0.02800
H724        H  0.91714738  0.71747489  0.53034890     0.09300
H725        H  0.88732981  0.78161467  0.41220628     0.07300
Br726      Br  0.88521553  0.79885413  0.53060892    -0.03300
C727        C  0.86538058  0.82807825  0.75197942    -0.09900
C728        C  0.85807212  0.80525959  0.75789936     0.06300
C729        C  0.83457369  0.80138515  0.76839741    -0.03700
C730        C  0.81903054  0.81979108  0.76793815    -0.08100
C731        C  0.82612829  0.84240310  0.75717256     0.05400
C732        C  0.84984473  0.84648490  0.75167023    -0.03100
Br733      Br  0.86246563  0.87655226  0.74208196    -0.02800
H734        H  0.88331291  0.83166413  0.74514157     0.09300
H735        H  0.80104153  0.81614299  0.77341077     0.07300
Br736      Br  0.82211991  0.77148127  0.78198610    -0.03300
C737        C  0.78201697  0.99741086  0.76274369    -0.09900
C738        C  0.76456491  0.00788677  0.73040070     0.06300
C739        C  0.74848998  0.99370133  0.70258008    -0.03700
C740        C  0.75140979  0.96991318  0.70240667    -0.08100
C741        C  0.76971011  0.95935695  0.73131122     0.05400
C742        C  0.78452051  0.97337958  0.76406840    -0.03100
Br743      Br  0.80895369  0.96102831  0.80940488    -0.02800
H744        H  0.79425791  0.00795058  0.78550144     0.09300
H745        H  0.73917943  0.95955602  0.67904854     0.07300
Br746      Br  0.72157749  0.00553757  0.66573375    -0.03300
C747        C  0.98104938  0.16108860  0.73135199    -0.09900
C748        C  0.97034146  0.18130392  0.75094290     0.06300
C749        C  0.98388404  0.19790041  0.77948865    -0.03700
C750        C  0.00777058  0.19560369  0.77962610    -0.08100
C751        C  0.01855218  0.17651260  0.75398850     0.05400
C752        C  0.00477362  0.15832451  0.73424647    -0.03100
Br753      Br  0.01728071  0.12913658  0.71168687    -0.02800
H754        H  0.97099955  0.14752713  0.71213144     0.09300
H755        H  0.01795996  0.20940534  0.79719842     0.07300
Br756      Br  0.97124551  0.22452968  0.81712551    -0.03300
C757        C  0.82886704  0.16475961  0.73874581    -0.09900
C758        C  0.85097009  0.15668302  0.75070327     0.06300
C759        C  0.85353646  0.13372858  0.76914429    -0.03700
C760        C  0.83466780  0.11899012  0.76914303    -0.08100
C761        C  0.81301618  0.12652538  0.75107321     0.05400
C762        C  0.81005527  0.15007216  0.73845084    -0.03100
Br763      Br  0.78140257  0.16345346  0.71595964    -0.02800
H764        H  0.82630605  0.18242231  0.72594164     0.09300
H765        H  0.83729641  0.10116116  0.78027595     0.07300
Br766      Br  0.88235527  0.12073915  0.79124561    -0.03300
C767        C  0.80502586  0.98450871  0.18343520    -0.09900
C768        C  0.78435818  0.99681824  0.18377703     0.06300
C769        C  0.76374194  0.98457690  0.17810576    -0.03700
C770        C  0.76405153  0.96057772  0.17507127    -0.08100
C771        C  0.78460640  0.94815314  0.17802358     0.05400
C772        C  0.80532120  0.96045910  0.17974556    -0.03100
Br773      Br  0.83449079  0.94543632  0.17588329    -0.02800
H774        H  0.82103365  0.99362780  0.18680197     0.09300
H775        H  0.74793836  0.95155039  0.17421211     0.07300
Br776      Br  0.73438424  0.99933102  0.18174248    -0.03300
C777        C  0.78359757  0.09611600  0.43037661    -0.09900
C778        C  0.78937529  0.07481234  0.40570601     0.06300
C779        C  0.79553736  0.05655910  0.44257180    -0.03700
C780        C  0.79361620  0.05921745  0.50264408    -0.08100
C781        C  0.78558486  0.07979729  0.52695863     0.05400
C782        C  0.78173574  0.09874943  0.49053520    -0.03100
Br783      Br  0.77424172  0.12861054  0.52048179    -0.02800
H784        H  0.77955918  0.11055133  0.40280030     0.09300
H785        H  0.79729756  0.04470004  0.53027999     0.07300
Br786      Br  0.80656035  0.02754640  0.41411740    -0.03300
C787        C  0.99144983  0.20282419  0.13603867    -0.09900
C788        C  0.98025457  0.18223392  0.14906119     0.06300
C789        C  0.99346456  0.16231817  0.15783370    -0.03700
C790        C  0.01732727  0.16373596  0.15939475    -0.08100
C791        C  0.02849579  0.18481811  0.15225149     0.05400
C792        C  0.01531721  0.20435154  0.13806722    -0.03100
Br793      Br  0.02831510  0.23438199  0.13034370    -0.02800
H794        H  0.98156409  0.21834209  0.12975370     0.09300
H795        H  0.02712711  0.14849582  0.16949696     0.07300
Br796      Br  0.97969935  0.13294988  0.17032442    -0.03300
C797        C  0.92285514  0.17496990  0.48605637    -0.09900
C798        C  0.90398861  0.18563929  0.51270676     0.06300
C799        C  0.88611691  0.19385667  0.47741778    -0.03700
C800        C  0.88814340  0.19259661  0.41701350    -0.08100
C801        C  0.90750173  0.18288994  0.39022863     0.05400
C802        C  0.92456081  0.17309231  0.42564884    -0.03100
Br803      Br  0.95024629  0.15622779  0.39543474    -0.02800
H804        H  0.93642390  0.16795082  0.51244207     0.09300
H805        H  0.87465463  0.19987239  0.39082818     0.07300
Br806      Br  0.85899031  0.20817775  0.50782419    -0.03300
C807        C  0.82442714  0.13307312  0.15440395    -0.09900
C808        C  0.83033275  0.10993913  0.16315240     0.06300
C809        C  0.85375161  0.10399027  0.16322859    -0.03700
C810        C  0.87036364  0.12117062  0.16142851    -0.08100
C811        C  0.86444396  0.14452042  0.15869924     0.05400
C812        C  0.84112124  0.15026846  0.15180353    -0.03100
Br813      Br  0.83057353  0.18112417  0.14076321    -0.02800
H814        H  0.80662027  0.13804839  0.15237181     0.09300
H815        H  0.88811565  0.11616219  0.16504695     0.07300
Br816      Br  0.86465870  0.07297142  0.16846073    -0.03300
C817        C  0.65749245  0.09459695  0.71635081    -0.09900
C818        C  0.65093199  0.08743319  0.77224395     0.06300
C819        C  0.66813481  0.08730948  0.81592900    -0.03700
C820        C  0.69109102  0.08993829  0.80080836    -0.08100
C821        C  0.69779022  0.09315655  0.74313129     0.05400
C822        C  0.68060967  0.09738235  0.70154798    -0.03100
Br823      Br  0.68737282  0.10599349  0.62307409    -0.02800
H824        H  0.64507773  0.09627391  0.68225040     0.09300
H825        H  0.70390528  0.08750633  0.83396827     0.07300
Br826      Br  0.66284640  0.07901350  0.89551877    -0.03300
C827        C  0.58543143  0.07110113  0.01320273    -0.09900
C828        C  0.60417334  0.05908936  0.03643466     0.06300
C829        C  0.61905702  0.04753431  0.99747488    -0.03700
C830        C  0.61496784  0.04794265  0.93829428    -0.08100
C831        C  0.59707575  0.06066551  0.91438937     0.05400
C832        C  0.58201978  0.07220867  0.95254729    -0.03100
Br833      Br  0.55742484  0.09039523  0.92325446    -0.02800
H834        H  0.57405793  0.08045679  0.04199719     0.09300
H835        H  0.62737428  0.03965108  0.91061773     0.07300
Br836      Br  0.64658156  0.03177177  0.01874434    -0.03300
C837        C  0.67180091  0.07670590  0.24014338    -0.09900
C838        C  0.66367381  0.07760531  0.18253390     0.06300
C839        C  0.68034867  0.08150063  0.13809752    -0.03700
C840        C  0.70353417  0.08266441  0.15157340    -0.08100
C841        C  0.71142772  0.07929461  0.20795388     0.05400
C842        C  0.69515976  0.07752628  0.25311865    -0.03100
Br843      Br  0.70332291  0.07445505  0.33334640    -0.02800
H844        H  0.66029039  0.07318482  0.27566661     0.09300
H845        H  0.71571757  0.08462651  0.11642918     0.07300
Br846      Br  0.67479792  0.08298073  0.05619048    -0.03300
C847        C  0.64020293  0.97277738  0.78271585    -0.09900
C848        C  0.62493490  0.96077313  0.81832677     0.06300
C849        C  0.61021327  0.97344164  0.85546673    -0.03700
C850        C  0.60957042  0.99729479  0.85164657    -0.08100
C851        C  0.62368876  0.00907702  0.81273384     0.05400
C852        C  0.64013146  0.99652673  0.78022429    -0.03100
Br853      Br  0.66087401  0.00928541  0.72385600    -0.02800
H854        H  0.65149072  0.96367461  0.75325348     0.09300
H855        H  0.59770436  0.00667212  0.87906994     0.07300
Br856      Br  0.59105449  0.96030146  0.91418949    -0.03300
C857        C  0.66758243  0.88118607  0.70823858    -0.09900
C858        C  0.66048978  0.88588678  0.76561804     0.06300
C859        C  0.67731629  0.88389419  0.80996355    -0.03700
C860        C  0.70019729  0.87988334  0.79577934    -0.08100
C861        C  0.70747648  0.87779435  0.73818290     0.05400
C862        C  0.69065269  0.87718346  0.69428208    -0.03100
Br863      Br  0.69776725  0.87231279  0.61370647    -0.02800
H864        H  0.65567724  0.88208616  0.67283002     0.09300
H865        H  0.71266184  0.87986985  0.83034169     0.07300
Br866      Br  0.67178594  0.88895468  0.89129590    -0.03300
C867        C  0.64184574  0.99132524  0.18639178    -0.09900
C868        C  0.62799850  0.00220777  0.14510793     0.06300
C869        C  0.61506633  0.98854752  0.10692027    -0.03700
C870        C  0.61618944  0.96481648  0.11129360    -0.08100
C871        C  0.62850129  0.95406446  0.15577750     0.05400
C872        C  0.64139545  0.96770827  0.19395667    -0.03100
Br873      Br  0.65643223  0.95628747  0.26187602    -0.02800
H874        H  0.65185816  0.00137704  0.21642473     0.09300
H875        H  0.60701557  0.95477646  0.07957492     0.07300
Br876      Br  0.59569308  0.00010026  0.04684617    -0.03300
C877        C  0.58973097  0.89172706  0.00801816    -0.09900
C878        C  0.60805935  0.90266058  0.03562845     0.06300
C879        C  0.62437411  0.91417401  0.00148220    -0.03700
C880        C  0.62214236  0.91466848  0.94160024    -0.08100
C881        C  0.60448914  0.90303707  0.91326938     0.05400
C882        C  0.58810930  0.89147134  0.94705584    -0.03100
Br883      Br  0.56466731  0.87348488  0.91208438    -0.02800
H884        H  0.57747833  0.88223207  0.03365130     0.09300
H885        H  0.63523357  0.92324550  0.91679243     0.07300
Br886      Br  0.65173891  0.92742911  0.03214286    -0.03300
C887        C  0.69372163  0.87755964  0.25737932    -0.09900
C888        C  0.70754838  0.86899379  0.21227441     0.06300
C889        C  0.69678664  0.86052983  0.16208962    -0.03700
C890        C  0.67324516  0.86364938  0.15476390    -0.08100
C891        C  0.65990609  0.87598031  0.19571847     0.05400
C892        C  0.67025580  0.88101379  0.24986048    -0.03100
Br893      Br  0.65433548  0.89556309  0.31322063    -0.02800
H894        H  0.70142797  0.88329008  0.29748022     0.09300
H895        H  0.66624806  0.85760961  0.11454199     0.07300
Br896      Br  0.71319327  0.84541436  0.10047181    -0.03300
C897        C  0.32149130  0.06588125  0.77933193    -0.09900
C898        C  0.33517930  0.05037587  0.74689585     0.06300
C899        C  0.32449504  0.03839733  0.70065068    -0.03700
C900        C  0.30107276  0.04097869  0.69086770    -0.08100
C901        C  0.28735953  0.05471834  0.72710087     0.05400
C902        C  0.29791929  0.06762480  0.77097139    -0.03100
Br903      Br  0.28124249  0.08781051  0.82194711    -0.02800
H904        H  0.32835073  0.07637030  0.81331342     0.09300
H905        H  0.29330756  0.03107255  0.65642906     0.07300
Br906      Br  0.34003427  0.01631040  0.65212571    -0.03300
C907        C  0.37480888  0.03720447  0.00149499    -0.09900
C908        C  0.39423559  0.04548814  0.02933528     0.06300
C909        C  0.41288640  0.05266778  0.99529000    -0.03700
C910        C  0.41131150  0.05243548  0.93408085    -0.08100
C911        C  0.39107411  0.04553534  0.90630875     0.05400
C912        C  0.37281355  0.03742226  0.94152162    -0.03100
Br913      Br  0.34380700  0.02682598  0.91380530    -0.02800
H914        H  0.36047390  0.03125853  0.02719270     0.09300
H915        H  0.42557971  0.05840491  0.90829228     0.07300
Br916      Br  0.44013523  0.06379945  0.03091096    -0.03300
C917        C  0.33017795  0.07687439  0.16354909    -0.09900
C918        C  0.34201522  0.05991667  0.19526737     0.06300
C919        C  0.33038976  0.05010272  0.24325983    -0.03700
C920        C  0.30711411  0.05429047  0.25177577    -0.08100
C921        C  0.29469585  0.06833141  0.21394348     0.05400
C922        C  0.30677699  0.08074577  0.17151170    -0.03100
Br923      Br  0.29257012  0.10275560  0.12138406    -0.02800
H924        H  0.33843682  0.08687769  0.13056104     0.09300
H925        H  0.29844908  0.04543236  0.28668438     0.07300
Br926      Br  0.34432276  0.02932194  0.29697653    -0.03300
C927        C  0.40313962  0.95024888  0.79324364    -0.09900
C928        C  0.38315071  0.93779832  0.80388101     0.06300
C929        C  0.36428816  0.94919695  0.82946769    -0.03700
C930        C  0.36452286  0.97296588  0.83398648    -0.08100
C931        C  0.38390614  0.98562132  0.81792518     0.05400
C932        C  0.40431860  0.97339724  0.80744827    -0.03100
Br933      Br  0.43339112  0.98296346  0.83697485    -0.02800
H934        H  0.41860720  0.94165879  0.77918355     0.09300
H935        H  0.34928806  0.98155258  0.84961586     0.07300
Br936      Br  0.33833813  0.93383542  0.86257601    -0.03300
C937        C  0.33160556  0.85183960  0.78666934    -0.09900
C938        C  0.34547942  0.86473305  0.74844808     0.06300
C939        C  0.33543422  0.87199516  0.69546831    -0.03700
C940        C  0.31219947  0.86840328  0.68524480    -0.08100
C941        C  0.29812580  0.85804922  0.72683694     0.05400
C942        C  0.30819687  0.84898743  0.77697771    -0.03100
Br943      Br  0.29077229  0.83298179  0.83464675    -0.02800
H944        H  0.33805374  0.84494932  0.82651875     0.09300
H945        H  0.30476176  0.87526526  0.64598881     0.07300
Br946      Br  0.35127231  0.88965572  0.63763350    -0.03300
C947        C  0.38480265  0.95128047  0.18837145    -0.09900
C948        C  0.38022815  0.93986368  0.13643317     0.06300
C949        C  0.37613739  0.95246680  0.08562478    -0.03700
C950        C  0.37759972  0.97640941  0.08707245    -0.08100
C951        C  0.38202765  0.98784456  0.13938936     0.05400
C952        C  0.38519044  0.97508246  0.19054600    -0.03100
Br953      Br  0.38856556  0.98891751  0.26545208    -0.02800
H954        H  0.38731079  0.94159824  0.22788775     0.09300
H955        H  0.37430839  0.98613820  0.04803737     0.07300
Br956      Br  0.36667413  0.93792703  0.01518974    -0.03300
C957        C  0.40855214  0.89730175  0.00497400    -0.09900
C958        C  0.40204340  0.87735876  0.03410154     0.06300
C959        C  0.40081583  0.85691083  0.00129922    -0.03700
C960        C  0.40127394  0.85781090  0.94043574    -0.08100
C961        C  0.40374012  0.87873799  0.91067766     0.05400
C962        C  0.40987883  0.89819832  0.94448496    -0.03100
Br963      Br  0.41967961  0.92728883  0.91597033    -0.02800
H964        H  0.41122354  0.91302933  0.02875809     0.09300
H965        H  0.39881311  0.84207930  0.91624403     0.07300
Br966      Br  0.39960783  0.82726291  0.03681519    -0.03300
C967        C  0.32367063  0.87057957  0.12871927    -0.09900
C968        C  0.33820643  0.86871965  0.17751813     0.06300
C969        C  0.32753502  0.86396169  0.23175590    -0.03700
C970        C  0.30356832  0.86414657  0.23623457    -0.08100
C971        C  0.28952821  0.86874151  0.18828480     0.05400
C972        C  0.29991657  0.87098539  0.13353618    -0.03100
Br973      Br  0.28326087  0.87787161  0.06414970    -0.02800
H974        H  0.33081917  0.87439399  0.08645580     0.09300
H975        H  0.29580794  0.86143430  0.27841367     0.07300
Br976      Br  0.34301439  0.85719384  0.30267518    -0.03300
C977        C  0.07919621  0.26815401  0.67905579    -0.09900
C978        C  0.09284153  0.25433092  0.71468606     0.06300
C979        C  0.10730314  0.26514167  0.75488841    -0.03700
C980        C  0.10637445  0.28898920  0.76233524    -0.08100
C981        C  0.09061109  0.30275380  0.73170616     0.05400
C982        C  0.07797335  0.29194104  0.68685715    -0.03100
Br983      Br  0.05711234  0.30804671  0.63707695    -0.02800
H984        H  0.06847392  0.26031300  0.64644765     0.09300
H985        H  0.11766648  0.29612434  0.79417198     0.07300
Br986      Br  0.12873125  0.24844222  0.80142319    -0.03300
C987        C  0.07876045  0.34157926  0.92316651    -0.09900
C988        C  0.08781481  0.35985176  0.89113947     0.06300
C989        C  0.09566108  0.37927836  0.92143885    -0.03700
C990        C  0.09532902  0.37965164  0.98265290    -0.08100
C991        C  0.08717131  0.36082555  0.01437770     0.05400
C992        C  0.07818221  0.34188774  0.98355220    -0.03100
Br993      Br  0.06439204  0.31572710  0.02013326    -0.02800
H994        H  0.07221269  0.32666711  0.90079705     0.09300
H995        H  0.10201290  0.39439910  0.00549736     0.07300
Br996      Br  0.10782840  0.40511810  0.88131146    -0.03300
C997        C  0.08449677  0.27978274  0.24720568    -0.09900
C998        C  0.09882716  0.26599776  0.21254052     0.06300
C999        C  0.11449996  0.27685171  0.17532183    -0.03700
C1000       C  0.11302130  0.30050382  0.16647056    -0.08100
C1001       C  0.09570302  0.31387024  0.19304621     0.05400
C1002       C  0.08335729  0.30357744  0.23907361    -0.03100
Br1003     Br  0.06419577  0.32081987  0.29127048    -0.02800
H1004       H  0.07349950  0.27197985  0.27939624     0.09300
H1005       H  0.12540277  0.30810203  0.13766897     0.07300
Br1006     Br  0.13868469  0.26052161  0.13633718    -0.03300
C1007       C  0.98850104  0.33965203  0.82223940    -0.09900
C1008       C  0.97923739  0.35632539  0.78544915     0.06300
C1009       C  0.99392180  0.37220176  0.75870858    -0.03700
C1010       C  0.01728858  0.37054647  0.76719526    -0.08100
C1011       C  0.02663961  0.35255714  0.79913739     0.05400
C1012       C  0.01202656  0.33760811  0.82926653    -0.03100
Br1013     Br  0.02300260  0.31435562  0.88072927    -0.02800
H1014       H  0.97748382  0.32763952  0.84410624     0.09300
H1015       H  0.02825666  0.38239932  0.74463439     0.07300
Br1016     Br  0.98444756  0.39428762  0.70292659    -0.03300
C1017       C  0.89256511  0.30300028  0.75601168    -0.09900
C1018       C  0.90878386  0.31540749  0.72317454     0.06300
C1019       C  0.91944959  0.30364465  0.67615424    -0.03700
C1020       C  0.91627332  0.28007682  0.66868700    -0.08100
C1021       C  0.90272526  0.26738048  0.70711049     0.05400
C1022       C  0.89012454  0.27925833  0.74991525    -0.03100
Br1023     Br  0.86971807  0.26425763  0.80293233    -0.02800
H1024       H  0.88210272  0.31109351  0.78863208     0.09300
H1025       H  0.92564178  0.27139903  0.63437165     0.07300
Br1026     Br  0.94087855  0.31763269  0.62403135    -0.03300
C1027       C  0.99266445  0.36790419  0.17676686    -0.09900
C1028       C  0.98181516  0.36312303  0.12417265     0.06300
C1029       C  0.99509382  0.36012235  0.07356428    -0.03700
C1030       C  0.01889897  0.36011073  0.07720781    -0.08100
C1031       C  0.02960355  0.36286166  0.13081557     0.05400
C1032       C  0.01638939  0.36787382  0.18049740    -0.03100
Br1033     Br  0.02963382  0.37383476  0.25492772    -0.02800
H1034       H  0.98266903  0.37034391  0.21583028     0.09300
H1035       H  0.02903526  0.35667829  0.03868643     0.07300
Br1036     Br  0.98193844  0.35458269  0.99926672    -0.03300
C1037       C  0.92698860  0.34570837  0.98375010    -0.09900
C1038       C  0.92235415  0.36566441  0.01620444     0.06300
C1039       C  0.91958330  0.38637122  0.98518674    -0.03700
C1040       C  0.91998525  0.38635892  0.92365732    -0.08100
C1041       C  0.92312533  0.36591785  0.89185931     0.05400
C1042       C  0.92734143  0.34549423  0.92346949    -0.03100
Br1043     Br  0.93390710  0.31593986  0.88949500    -0.02800
H1044       H  0.93079809  0.32975448  0.00556824     0.09300
H1045       H  0.91703875  0.40223310  0.90064012     0.07300
Br1046     Br  0.91414916  0.41485801  0.02406531    -0.03300
C1047       C  0.89763795  0.27396748  0.17230532    -0.09900
C1048       C  0.91509705  0.26214808  0.20124971     0.06300
C1049       C  0.93296097  0.27504129  0.22601835    -0.03700
C1050       C  0.93434073  0.29858612  0.21565028    -0.08100
C1051       C  0.91858832  0.30997571  0.17967804     0.05400
C1052       C  0.89866596  0.29777606  0.16390160    -0.03100
Br1053     Br  0.87064972  0.31260644  0.14231249    -0.02800
H1054       H  0.88271800  0.26472673  0.15773360     0.09300
H1055       H  0.94859622  0.30787493  0.23382801     0.07300
Br1056     Br  0.95709947  0.26175037  0.27108904    -0.03300
C1057       C  0.07661483  0.42422473  0.64644475    -0.09900
C1058       C  0.05597995  0.42365019  0.61438831     0.06300
C1059       C  0.04497291  0.40202219  0.61073147    -0.03700
C1060       C  0.05238134  0.38351175  0.64539778    -0.08100
C1061       C  0.07113276  0.38562831  0.68302549     0.05400
C1062       C  0.08382951  0.40584642  0.68092486    -0.03100
Br1063     Br  0.11195942  0.40863555  0.72223159    -0.02800
H1064       H  0.08783184  0.43880842  0.64446926     0.09300
H1065       H  0.04315695  0.36747250  0.64379545     0.07300
Br1066     Br  0.02064801  0.39600664  0.55728955    -0.03300
C1067       C  0.04800035  0.50641419  0.68581186    -0.09900
C1068       C  0.05029753  0.50916501  0.62528246     0.06300
C1069       C  0.05713634  0.53079929  0.60494424    -0.03700
C1070       C  0.06234038  0.54848172  0.64475747    -0.08100
C1071       C  0.06162603  0.54508347  0.70573847     0.05400
C1072       C  0.05470695  0.52324264  0.72542400    -0.03100
Br1073     Br  0.05733557  0.51284294  0.80403450    -0.02800
H1074       H  0.04227284  0.49018081  0.70312097     0.09300
H1075       H  0.06703246  0.56499905  0.62738221     0.07300
Br1076     Br  0.06064818  0.53684939  0.52375168    -0.03300
C1077       C  0.06490442  0.41668786  0.19352485    -0.09900
C1078       C  0.08111339  0.40062727  0.21336244     0.06300
C1079       C  0.09092111  0.40520192  0.26855885    -0.03700
C1080       C  0.08144934  0.42218905  0.30519770    -0.08100
C1081       C  0.06335739  0.43644742  0.28701820     0.05400
C1082       C  0.05671882  0.43458319  0.22818829    -0.03100
Br1083     Br  0.03608124  0.45562991  0.19077868    -0.02800
H1084       H  0.05756833  0.41558093  0.15107572     0.09300
H1085       H  0.08926243  0.42470207  0.34696742     0.07300
Br1086     Br  0.11920733  0.39206403  0.29442409    -0.03300
C1087       C  0.04249873  0.55387487  0.26958911    -0.09900
C1088       C  0.06513070  0.55653065  0.24985503     0.06300
C1089       C  0.08201360  0.54208403  0.27264696    -0.03700
C1090       C  0.07588939  0.52415972  0.30992589    -0.08100
C1091       C  0.05283845  0.51966508  0.32458582     0.05400
C1092       C  0.03642167  0.53601371  0.30767344    -0.03100
Br1093     Br  0.00578288  0.53505924  0.33551711    -0.02800
H1094       H  0.02940761  0.56556962  0.25477587     0.09300
H1095       H  0.08911986  0.51235601  0.32353891     0.07300
Br1096     Br  0.11329572  0.54447937  0.24860129    -0.03300
C1097       C  0.93995052  0.42030658  0.59704157    -0.09900
C1098       C  0.94526689  0.44031475  0.62765229     0.06300
C1099       C  0.94289974  0.44001702  0.68887224    -0.03700
C1100       C  0.93384222  0.42085252  0.71698621    -0.08100
C1101       C  0.92970445  0.40021381  0.68732028     0.05400
C1102       C  0.93296532  0.40026325  0.62579866    -0.03100
Br1103     Br  0.93111648  0.37382779  0.57663990    -0.02800
H1104       H  0.94189836  0.42000768  0.55027976     0.09300
H1105       H  0.93171519  0.42172715  0.76356764     0.07300
Br1106     Br  0.95550194  0.46315039  0.73875274    -0.03300
C1107       C  0.95091126  0.54894549  0.69737456    -0.09900
C1108       C  0.92951750  0.55892211  0.68689327     0.06300
C1109       C  0.91800235  0.55174769  0.63602009    -0.03700
C1110       C  0.92814421  0.53533320  0.59817227    -0.08100
C1111       C  0.94945755  0.52492173  0.61048703     0.05400
C1112       C  0.96019380  0.53168035  0.66306420    -0.03100
Br1113     Br  0.98570544  0.51660093  0.69984844    -0.02800
H1114       H  0.96061927  0.55345915  0.73506331     0.09300
H1115       H  0.91841540  0.52941739  0.56129897     0.07300
Br1116     Br  0.88730887  0.56110189  0.61958901    -0.03300
C1117       C  0.94451631  0.38880564  0.27873777    -0.09900
C1118       C  0.93014597  0.39257045  0.23099020     0.06300
C1119       C  0.91769387  0.41309431  0.22919028    -0.03700
C1120       C  0.92189812  0.43048415  0.26994148    -0.08100
C1121       C  0.93922832  0.42837014  0.31237322     0.05400
C1122       C  0.94887930  0.40619857  0.31951720    -0.03100
Br1123     Br  0.96881326  0.39863648  0.38269018    -0.02800
H1124       H  0.95274331  0.37229644  0.28388109     0.09300
H1125       H  0.91138622  0.44560759  0.26718140     0.07300
Br1126     Br  0.89390737  0.41768133  0.17373485    -0.03300
C1127       C  0.96149308  0.51838940  0.26045774    -0.09900
C1128       C  0.94851215  0.51392641  0.30987164     0.06300
C1129       C  0.92825069  0.52657693  0.31819386    -0.03700
C1130       C  0.92163292  0.54352081  0.27792343    -0.08100
C1131       C  0.93472094  0.54834754  0.22754009     0.05400
C1132       C  0.95530640  0.53527260  0.22027794    -0.03100
Br1133     Br  0.97728991  0.53788781  0.15924162    -0.02800
H1134       H  0.97641924  0.50782665  0.25189418     0.09300
H1135       H  0.90562903  0.55238134  0.28541024     0.07300
Br1136     Br  0.90839266  0.52000440  0.38231231    -0.03300
C1137       C  0.43117476  0.01355588  0.70118354    -0.09900
C1138       C  0.41816500  0.03343091  0.69391369     0.06300
C1139       C  0.42404121  0.04783428  0.64657632    -0.03700
C1140       C  0.44212337  0.04166434  0.60863361    -0.08100
C1141       C  0.45581536  0.02225108  0.61906695     0.05400
C1142       C  0.45077611  0.00904554  0.66863236    -0.03100
Br1143     Br  0.47242571  0.98856886  0.70342061    -0.02800
H1144       H  0.42676232  0.00168525  0.73540409     0.09300
H1145       H  0.44680267  0.05321795  0.57382646     0.07300
Br1146     Br  0.41049404  0.07747392  0.63571600    -0.03300
C1147       C  0.55833563  0.06305611  0.68472099    -0.09900
C1148       C  0.57632887  0.04855571  0.70114193     0.06300
C1149       C  0.57748593  0.02667265  0.67516280    -0.03700
C1150       C  0.55970704  0.01855633  0.64079335    -0.08100
C1151       C  0.54030345  0.03192924  0.62913151     0.05400
C1152       C  0.54097989  0.05530974  0.64720610    -0.03100
Br1153     Br  0.51999087  0.07804547  0.61920564    -0.02800
H1154       H  0.55789043  0.08053971  0.70063222     0.09300
H1155       H  0.56182455  0.00184131  0.62123309     0.07300
Br1156     Br  0.60384732  0.00766318  0.67781658    -0.03300
C1157       C  0.44906718  0.04036550  0.31908442    -0.09900
C1158       C  0.46202598  0.02077299  0.30582605     0.06300
C1159       C  0.45697516  0.00873298  0.25439293    -0.03700
C1160       C  0.43785581  0.01460545  0.22167169    -0.08100
C1161       C  0.42465792  0.03429471  0.23411391     0.05400
C1162       C  0.43121600  0.04773842  0.28286584    -0.03100
Br1163     Br  0.41959353  0.07796589  0.29853785    -0.02800
H1164       H  0.45411089  0.05107632  0.35527744     0.09300
H1165       H  0.43389413  0.00361002  0.18544047     0.07300
Br1166     Br  0.47736637  0.98648704  0.22080487    -0.03300
C1167       C  0.56488439  0.05942222  0.24995253    -0.09900
C1168       C  0.58513618  0.04673650  0.24735467     0.06300
C1169       C  0.58722462  0.02750222  0.28381407    -0.03700
C1170       C  0.56809454  0.01893007  0.31349316    -0.08100
C1171       C  0.54680959  0.03018146  0.31133446     0.05400
C1172       C  0.54645154  0.05223444  0.28461603    -0.03100
Br1173     Br  0.52296151  0.07478127  0.29813675    -0.02800
H1174       H  0.56360852  0.07531836  0.22603854     0.09300
H1175       H  0.57011859  0.00366842  0.33950305     0.07300
Br1176     Br  0.61614213  0.01369961  0.29935258    -0.03300
C1177       C  0.46614663  0.90132801  0.68881011    -0.09900
C1178       C  0.46148451  0.91171443  0.63437660     0.06300
C1179       C  0.43823272  0.91272952  0.61759127    -0.03700
C1180       C  0.42118264  0.90245893  0.65194182    -0.08100
C1181       C  0.42639806  0.89153770  0.70453888     0.05400
C1182       C  0.44918468  0.89108944  0.72263878    -0.03100
Br1183     Br  0.45823408  0.87690809  0.79419991    -0.02800
H1184       H  0.48271078  0.90182759  0.70847719     0.09300
H1185       H  0.40352575  0.90412355  0.63895319     0.07300
Br1186     Br  0.42810222  0.92967181  0.55120835    -0.03300
C1187       C  0.54120447  0.92963930  0.68934419    -0.09900
C1188       C  0.54401757  0.92990874  0.62850476     0.06300
C1189       C  0.56639488  0.92690511  0.60691547    -0.03700
C1190       C  0.58454871  0.92178309  0.64530931    -0.08100
C1191       C  0.58074641  0.91851425  0.70550310     0.05400
C1192       C  0.55830103  0.92200261  0.72638073    -0.03100
Br1193     Br  0.54756873  0.91194643  0.80081438    -0.02800
H1194       H  0.52446668  0.93266300  0.70815210     0.09300
H1195       H  0.60160575  0.91993139  0.62764047     0.07300
Br1196     Br  0.57315011  0.92961394  0.52631343    -0.03300
C1197       C  0.43626354  0.91070332  0.33069251    -0.09900
C1198       C  0.45778279  0.91498170  0.30509877     0.06300
C1199       C  0.45946362  0.91132919  0.24408628    -0.03700
C1200       C  0.44198791  0.90038854  0.21369350    -0.08100
C1201       C  0.42053999  0.89626557  0.23872286     0.05400
C1202       C  0.41764076  0.90245589  0.29800093    -0.03100
Br1203     Br  0.38838732  0.90342089  0.33573886    -0.02800
H1204       H  0.43322660  0.91520754  0.37557926     0.09300
H1205       H  0.44498290  0.89636484  0.16844698     0.07300
Br1206     Br  0.48340656  0.92318851  0.19564343    -0.03300
C1207       C  0.54186034  0.92577464  0.25492178    -0.09900
C1208       C  0.54192984  0.92004862  0.31392054     0.06300
C1209       C  0.56054244  0.90749484  0.33523936    -0.03700
C1210       C  0.57913747  0.90216436  0.29857581    -0.08100
C1211       C  0.57848951  0.90673861  0.23829679     0.05400
C1212       C  0.55851368  0.91751097  0.21661993    -0.03100
Br1213     Br  0.54924316  0.91701317  0.13657904    -0.02800
H1214       H  0.52728666  0.93471833  0.23730256     0.09300
H1215       H  0.59370815  0.89365754  0.31747790     0.07300
Br1216     Br  0.55988191  0.89464185  0.41126086    -0.03300
loop_ 
_geom_bond_atom_site_label_1 
_geom_bond_atom_site_label_2 
_geom_bond_distance 
_geom_bond_site_symmetry_2 
_ccdc_geom_bond_type 
C1            C2   1.535       .  S
C1            C7   1.527       .  S
C1            C5   1.542       .  S
C1         C1198   1.558       .  S
C2            H9   1.078       .  S
C2            C3   1.386       .  D
C3            C4   1.561       .  S
C3           C18   1.515       .  S
C4            C8   1.550       .  S
C4            C6   1.542       .  S
C4           H10   1.109       .  S
C5           H11   1.081       .  S
C5            C6   1.372       .  D
C6           C30   1.497       .  S
C7           H12   1.085       .  S
C7            C8   1.359       .  D
C8         C1208   1.493       .  S
C13          C14   1.550       .  S
C13          C19   1.525       .  S
C13          C17   1.521       .  S
C13        C1178   1.558       .  S
C14          H21   1.080       .  S
C14          C15   1.372       .  D
C15          C16   1.536       .  S
C15          C39   1.499       .  S
C16          C20   1.563       .  S
C16          C18   1.577       .  S
C16          H22   1.108       .  S
C17          H23   1.081       .  S
C17          C18   1.381       .  D
C19          H24   1.080       .  S
C19          C20   1.358       .  D
C20        C1188   1.521       .  S
C25          C26   1.530       .  S
C25          C31   1.523       .  S
C25          C29   1.556   1_545  S
C25        C1171   1.550       .  S
C26          H33   1.080       .  S
C26          C27   1.382       .  D
C27          C28   1.567       .  S
C27          C42   1.539       .  S
C28          C32   1.560       .  S
C28          C30   1.547   1_545  S
C28          H34   1.110   1_545  S
C29          H35   1.085       .  S
C29          C30   1.374       .  D
C31          H36   1.086       .  S
C31          C32   1.355       .  D
C32        C1158   1.488       .  S
C37          C38   1.553   1_545  S
C37          C43   1.521       .  S
C37          C41   1.526       .  S
C37        C1151   1.549       .  S
C38          H45   1.084       .  S
C38          C39   1.365       .  D
C39          C40   1.549   1_565  S
C40          C44   1.570       .  S
C40          C42   1.575       .  S
C40          H46   1.109   1_545  S
C41          H47   1.080       .  S
C41          C42   1.381       .  D
C43          H48   1.087       .  S
C43          C44   1.359       .  D
C44        C1141   1.494       .  S
C49          C50   1.532       .  S
C49          C55   1.534       .  S
C49          C53   1.545       .  S
C49        C1121   1.557       .  S
C50          H57   1.077       .  S
C50          C51   1.376       .  D
C51          C52   1.560       .  S
C51          C78   1.533   1_655  S
C52          C56   1.560       .  S
C52          C54   1.557       .  S
C52          H58   1.109       .  S
C53          H59   1.086       .  S
C53          C54   1.375       .  D
C54          C68   1.498       .  S
C55          H60   1.081       .  S
C55          C56   1.355       .  D
C56        C1128   1.493       .  S
C61          C62   1.528       .  S
C61          C67   1.545       .  S
C61          C65   1.542       .  S
C61        C1111   1.543       .  S
C62          H69   1.086       .  S
C62          C63   1.357       .  D
C63          C64   1.549       .  S
C63        C1098   1.502       .  S
C64          C68   1.559       .  S
C64          C66   1.538       .  S
C64          H70   1.111       .  S
C65          H71   1.085       .  S
C65          C66   1.360       .  D
C66          C90   1.483   1_655  S
C67          H72   1.085       .  S
C67          C68   1.380       .  D
C73          C74   1.534       .  S
C73          C79   1.508       .  S
C73          C77   1.525       .  S
C73        C1081   1.546       .  S
C74          H81   1.076       .  S
C74          C75   1.379       .  D
C75          C76   1.574       .  S
C75          C92   1.526       .  S
C76          C80   1.580       .  S
C76          C78   1.570       .  S
C76          H82   1.107       .  S
C77          H83   1.078       .  S
C77          C78   1.375       .  D
C79          H84   1.087       .  S
C79          C80   1.363       .  D
C80        C1091   1.513       .  S
C85          C86   1.532       .  S
C85          C91   1.527       .  S
C85          C89   1.551       .  S
C85        C1058   1.564       .  S
C86          H93   1.082       .  S
C86          C87   1.362       .  D
C87          C88   1.558       .  S
C87        C1068   1.513       .  S
C88          C92   1.562       .  S
C88          C90   1.538       .  S
C88          H94   1.108       .  S
C89          H95   1.085       .  S
C89          C90   1.372       .  D
C91          H96   1.081       .  S
C91          C92   1.384       .  D
C97          C98   1.551       .  S
C97         C103   1.536       .  S
C97         C101   1.522       .  S
C97        C1051   1.542       .  S
C98         H105   1.086       .  S
C98          C99   1.361       .  D
C99         C100   1.529       .  S
C99        C1028   1.474       .  S
C100        C104   1.559       .  S
C100        C102   1.564       .  S
C100        H106   1.110       .  S
C101        H107   1.086       .  S
C101        C102   1.363       .  D
C102       C1118   1.495       .  S
C103        H108   1.083       .  S
C103        C104   1.377       .  D
C104       C1038   1.517       .  S
C109        C110   1.536       .  S
C109        C115   1.542       .  S
C109        C113   1.545       .  S
C109       C1018   1.546       .  S
C110        H117   1.082       .  S
C110        C111   1.377       .  D
C111        C112   1.571       .  S
C111       C1101   1.517       .  S
C112        C116   1.552       .  S
C112        C114   1.520       .  S
C112        H118   1.108       .  S
C113        H119   1.087       .  S
C113        C114   1.357       .  D
C114       C1008   1.474       .  S
C115        H120   1.079       .  S
C115        C116   1.361       .  D
C116       C1041   1.508       .  S
C121        C122   1.537       .  S
C121        C127   1.540       .  S
C121        C125   1.544       .  S
C121       C1001   1.545       .  S
C122        H129   1.077       .  S
C122        C123   1.385       .  D
C123        C124   1.567       .  S
C123       C1078   1.526       .  S
C124        C128   1.538       .  S
C124        C126   1.524       .  S
C124        H130   1.103       .  S
C125        H131   1.086       .  S
C125        C126   1.360       .  D
C126       C1031   1.469       .  S
C127        H132   1.083       .  S
C127        C128   1.356       .  D
C128        C991   1.495       .  S
C133        C134   1.542       .  S
C133        C139   1.547       .  S
C133        C137   1.540       .  S
C133        C981   1.545       .  S
C134        H141   1.086       .  S
C134        C135   1.361       .  D
C135        C136   1.528       .  S
C135       C1011   1.471       .  S
C136        C140   1.545       .  S
C136        C138   1.552       .  S
C136        H142   1.111       .  S
C137        H143   1.085       .  S
C137        C138   1.367       .  D
C138       C1061   1.500       .  S
C139        H144   1.080       .  S
C139        C140   1.371       .  D
C140        C988   1.499       .  S
C145        C146   1.559       .  S
C145        C151   1.541       .  S
C145        C149   1.540       .  S
C145        C968   1.550       .  S
C146        H153   1.073       .  S
C146        C147   1.379       .  D
C147        C148   1.547       .  S
C147       C1201   1.515       .  S
C148        C152   1.549       .  S
C148        C150   1.520       .  S
C148        H154   1.106       .  S
C149        H155   1.088       .  S
C149        C150   1.351       .  D
C150        C948   1.466       .  S
C151        H156   1.084       .  S
C151        C152   1.368       .  D
C152        C958   1.503       .  S
C157        C158   1.533       .  S
C157        C163   1.553       .  S
C157        C161   1.542       .  S
C157        C938   1.544       .  S
C158        H165   1.085       .  S
C158        C159   1.357       .  D
C159        C160   1.533       .  S
C159        C928   1.476       .  S
C160        C164   1.538       .  S
C160        C162   1.540       .  S
C160        H166   1.098       .  S
C161        H167   1.085       .  S
C161        C162   1.370       .  D
C162       C1181   1.492       .  S
C163        H168   1.078       .  S
C163        C164   1.374       .  D
C164        C961   1.513       .  S
C169        C170   1.539       .  S
C169        C175   1.544       .  S
C169        C173   1.536       .  S
C169        C918   1.543       .  S
C170        H177   1.087       .  S
C170        C171   1.356       .  D
C171        C172   1.532       .  S
C171        C951   1.470   1_545  S
C172        C176   1.540       .  S
C172        C174   1.560       .  S
C172        H178   1.107       .  S
C173        H179   1.080       .  S
C173        C174   1.378       .  D
C174       C1161   1.515       .  S
C175        H180   1.080       .  S
C175        C176   1.365       .  D
C176        C908   1.492       .  S
C181        C182   1.529       .  S
C181        C187   1.547       .  S
C181        C185   1.540       .  S
C181        C898   1.543       .  S
C182        H189   1.083       .  S
C182        C183   1.369       .  D
C183        C184   1.571       .  S
C183       C1138   1.513       .  S
C184        C188   1.544       .  S
C184        C186   1.532       .  S
C184        H190   1.099       .  S
C185        H191   1.085       .  S
C185        C186   1.370       .  D
C186        C931   1.495   1_545  S
C187        H192   1.079       .  S
C187        C188   1.362       .  D
C188        C911   1.504       .  S
C193        C194   1.539       .  S
C193        C199   1.543       .  S
C193        C197   1.549       .  S
C193        C891   1.544       .  S
C194        H201   1.085       .  S
C194        C195   1.357       .  D
C195        C196   1.525       .  S
C195        C871   1.482       .  S
C196        C200   1.538       .  S
C196        C198   1.545       .  S
C196        H202   1.095       .  S
C197        H203   1.083       .  S
C197        C198   1.382       .  D
C198       C1211   1.514       .  S
C199        H204   1.080       .  S
C199        C200   1.360       .  D
C200        C878   1.482       .  S
C205        C206   1.554       .  S
C205        C211   1.535       .  S
C205        C209   1.536       .  S
C205        C858   1.544       .  S
C206        H213   1.082       .  S
C206        C207   1.377       .  D
C207        C208   1.554       .  S
C207       C1191   1.514       .  S
C208        C212   1.551       .  S
C208        C210   1.525       .  S
C208        H214   1.099       .  S
C209        H215   1.086       .  S
C209        C210   1.361       .  D
C210        C848   1.488       .  S
C211        H216   1.085       .  S
C211        C212   1.368       .  D
C212        C881   1.490       .  S
C217        C218   1.552       .  S
C217        C223   1.539       .  S
C217        C221   1.535       .  S
C217        C838   1.545       .  S
C218        H225   1.084       .  S
C218        C219   1.371       .  D
C219        C220   1.547       .  S
C219       C1168   1.495       .  S
C220        C224   1.551       .  S
C220        C222   1.528       .  S
C220        H226   1.107       .  S
C221        H227   1.087       .  S
C221        C222   1.363       .  D
C222        C868   1.483       .  S
C223        H228   1.081       .  S
C223        C224   1.365       .  D
C224        C828   1.496       .  S
C229        C230   1.535       .  S
C229        C235   1.554       .  S
C229        C233   1.534       .  S
C229        C818   1.540       .  S
C230        H237   1.086       .  S
C230        C231   1.370       .  D
C231        C232   1.559       .  S
C231        C831   1.497       .  S
C232        C236   1.549       .  S
C232        C234   1.534       .  S
C232        H238   1.110       .  S
C233        H239   1.083       .  S
C233        C234   1.350       .  D
C234        C851   1.483       .  S
C235        H240   1.083       .  S
C235        C236   1.374       .  D
C236       C1148   1.502       .  S
In241       O243   2.271       .  S
In241       O244   2.242       .  S
In241       O252   2.280       .  S
In241       O246   2.258       .  S
In241       O248   2.273       .  S
In241       O249   2.249       .  S
In241       O250   2.240       .  S
In241       O253   2.249       .  S
C242        O248   1.263       .  A
C242        O250   1.259       .  A
C242        C788   1.483       .  S
O243        C251   1.266       .  A
O244        C251   1.259       .  A
C245        O252   1.260       .  A
C245        O246   1.259       .  A
C245        C811   1.496       .  S
C247        O249   1.261       .  A
C247        O253   1.258       .  A
C247        C801   1.485       .  S
C251       C1048   1.488       .  S
In254       O256   2.253       .  S
In254       O257   2.233       .  S
In254       O265   2.268       .  S
In254       O259   2.254       .  S
In254       O261   2.262       .  S
In254       O262   2.249       .  S
In254       O263   2.265       .  S
In254       O266   2.251       .  S
C255        O261   1.261       .  A
C255        O263   1.260       .  A
C255        C768   1.487   1_545  S
O256        C264   1.260       .  A
O257        C264   1.258       .  A
C258        O265   1.259       .  A
C258        O259   1.258       .  A
C258        C808   1.493       .  S
C260        O262   1.258       .  A
C260        O266   1.265       .  A
C260        C841   1.490       .  S
C264        C778   1.476       .  S
In267       O269   2.250       .  S
In267       O270   2.253       .  S
In267       O278   2.250       .  S
In267       O272   2.271       .  S
In267       O274   2.255       .  S
In267       O275   2.240       .  S
In267       O276   2.252       .  S
In267       O279   2.259       .  S
C268        O274   1.262       .  A
C268        O276   1.263       .  A
C268        C748   1.493       .  S
O269        C277   1.259       .  A
O270        C277   1.258       .  A
C271        O278   1.258       .  A
C271        O272   1.259       .  A
C271        C758   1.491       .  S
C273        O275   1.259       .  A
C273        O279   1.262       .  A
C273       C1021   1.485       .  S
C277        C798   1.482       .  S
In280       O282   2.263       .  S
In280       O283   2.247       .  S
In280       O291   2.237       .  S
In280       O285   2.268       .  S
In280       O287   2.284       .  S
In280       O288   2.239       .  S
In280       O289   2.229       .  S
In280       O292   2.248       .  S
C281        O287   1.265       .  A
C281        O289   1.259       .  A
C281        C738   1.490       .  S
O282        C290   1.265       .  A
O283        C290   1.258       .  A
C284        O291   1.257       .  A
C284        O285   1.262       .  A
C284        C761   1.491       .  S
C286        O288   1.259       .  A
C286        O292   1.259       .  A
C286        C781   1.474       .  S
C290        C821   1.491       .  S
In293       O295   2.264       .  S
In293       O296   2.253       .  S
In293       O304   2.270       .  S
In293       O298   2.270       .  S
In293       O300   2.284       .  S
In293       O301   2.250       .  S
In293       O302   2.244       .  S
In293       O305   2.245       .  S
C294        O300   1.262       .  A
C294        O302   1.258       .  A
C294        C708   1.488       .  S
O295        C303   1.261       .  A
O296        C303   1.258       .  A
C297        O304   1.260       .  A
C297        O298   1.261       .  A
C297        C728   1.499       .  S
C299        O301   1.260       .  A
C299        O305   1.261       .  A
C299        C718   1.482       .  S
C303        C698   1.491       .  S
In306       O308   2.240       .  S
In306       O309   2.238       .  S
In306       O317   2.270       .  S
In306       O311   2.269       .  S
In306       O313   2.302       .  S
In306       O314   2.239       .  S
In306       O315   2.232       .  S
In306       O318   2.260       .  S
C307        O313   1.266       .  A
C307        O315   1.257       .  A
C307        C741   1.495       .  S
O308        C316   1.261       .  A
O309        C316   1.259       .  A
C310        O317   1.262       .  A
C310        O311   1.260       .  A
C310        C731   1.500       .  S
C312        O314   1.258       .  A
C312        O318   1.268       .  A
C312        C861   1.493       .  S
C316        C691   1.479       .  S
In319       O321   2.237       .  S
In319       O322   2.262       .  S
In319       O330   2.270       .  S
In319       O324   2.258       .  S
In319       O326   2.257       .  S
In319       O327   2.254       .  S
In319       O328   2.272       .  S
In319       O331   2.261       .  S
C320        O326   1.260       .  A
C320        O328   1.261       .  A
C320        C671   1.493       .  S
O321        C329   1.258       .  A
O322        C329   1.261       .  A
C323        O330   1.261       .  A
C323        O324   1.259       .  A
C323        C681   1.492       .  S
C325        O327   1.259       .  A
C325        O331   1.262       .  A
C325        C661   1.492       .  S
C329        C721   1.480       .  S
In332       O334   2.262       .  S
In332       O335   2.244       .  S
In332       O343   2.265       .  S
In332       O337   2.263       .  S
In332       O339   2.270       .  S
In332       O340   2.257       .  S
In332       O341   2.260       .  S
In332       O344   2.240       .  S
C333        O339   1.262       .  A
C333        O341   1.259       .  A
C333        C771   1.491       .  S
O334        C342   1.265       .  A
O335        C342   1.261       .  A
C336        O343   1.258       .  A
C336        O337   1.260       .  A
C336        C678   1.493       .  S
C338        O340   1.259       .  A
C338        O344   1.257       .  A
C338        C688   1.475       .  S
C342        C888   1.490       .  S
In345       O347   2.265       .  S
In345       O348   2.243       .  S
In345       O356   2.272       .  S
In345       O350   2.274       .  S
In345       O352   2.282       .  S
In345       O353   2.257       .  S
In345       O354   2.236       .  S
In345       O357   2.229       .  S
C346        O352   1.263       .  A
C346        O354   1.258       .  A
C346        C751   1.490       .  S
O347        C355   1.266       .  A
O348        C355   1.259       .  A
C349        O356   1.258       .  A
C349        O350   1.259       .  A
C349        C651   1.499       .  S
C351        O353   1.260       .  A
C351        O357   1.257       .  A
C351        C638   1.476       .  S
C355        C978   1.489       .  S
In358       O360   2.222       .  S
In358       O361   2.242       .  S
In358       O369   2.272       .  S
In358       O363   2.264       .  S
In358       O365   2.286       .  S
In358       O366   2.237       .  S
In358       O367   2.223       .  S
In358       O370   2.258       .  S
C359        O365   1.266       .  A
C359        O367   1.257       .  A
C359        C618   1.488   1_545  S
O360        C368   1.260       .  A
O361        C368   1.260       .  A
C362        O369   1.260       .  A
C362        O363   1.257       .  A
C362        C648   1.498       .  S
C364        O366   1.259       .  A
C364        O370   1.265       .  A
C364        C901   1.484       .  S
C368        C628   1.478       .  S
In371       O373   2.224       .  S
In371       O374   2.259       .  S
In371       O382   2.243       .  S
In371       O376   2.257       .  S
In371       O378   2.261       .  S
In371       O379   2.254       .  S
In371       O380   2.247       .  S
In371       O383   2.245       .  S
C372        O378   1.261       .  A
C372        O380   1.260       .  A
C372        C791   1.485       .  S
O373        C381   1.259       .  A
O374        C381   1.258       .  A
C375        O382   1.256       .  A
C375        O376   1.260       .  A
C375        C608   1.484       .  S
C377        O379   1.260       .  A
C377        O383   1.263       .  A
C377        C998   1.484       .  S
C381        C641   1.478       .  S
In384       O386   2.257       .  S
In384       O387   2.231       .  S
In384       O395   2.243       .  S
In384       O389   2.272       .  S
In384       O391   2.233       .  S
In384       O392   2.245       .  S
In384       O393   2.273       .  S
In384       O396   2.233       .  S
C385        O391   1.261       .  A
C385        O393   1.264       .  A
C385        C598   1.494   1_545  S
O386        C394   1.264       .  A
O387        C394   1.260       .  A
C388        O395   1.255       .  A
C388        O389   1.258       .  A
C388        C611   1.487       .  S
C390        O392   1.260       .  A
C390        O396   1.257       .  A
C390        C631   1.479       .  S
C394        C921   1.485       .  S
In397       O399   2.267       .  S
In397       O400   2.241       .  S
In397       O408   2.267       .  S
In397       O402   2.265       .  S
In397       O404   2.237       .  S
In397       O405   2.263       .  S
In397       O406   2.266       .  S
In397       O409   2.227       .  S
C398        O404   1.261       .  A
C398        O406   1.262       .  A
C398        C621   1.491       .  S
O399        C407   1.263       .  A
O400        C407   1.257       .  A
C401        O408   1.259       .  A
C401        O402   1.260       .  A
C401        C588   1.496       .  S
C403        O405   1.262       .  A
C403        O409   1.257       .  A
C403        C578   1.476       .  S
C407        C941   1.482       .  S
In410       O412   2.235       .  S
In410       O413   2.244       .  S
In410       O421   2.251       .  S
In410       O415   2.272       .  S
In410       O417   2.285       .  S
In410       O418   2.232       .  S
In410       O419   2.241       .  S
In410       O422   2.268       .  S
C411        O417   1.262       .  A
C411        O419   1.259       .  A
C411        C711   1.496       .  S
O412        C420   1.258       .  A
O413        C420   1.258       .  A
C414        O421   1.260       .  A
C414        O415   1.262       .  A
C414        C591   1.496       .  S
C416        O418   1.259       .  A
C416        O422   1.265       .  A
C416        C558   1.487       .  S
C420        C568   1.471       .  S
In423       O425   2.233       .  S
In423       O426   2.249       .  S
In423       O434   2.281       .  S
In423       O428   2.251       .  S
In423       O430   2.241       .  S
In423       O431   2.245       .  S
In423       O432   2.290       .  S
In423       O435   2.267       .  S
C424        O430   1.256       .  A
C424        O432   1.264       .  A
C424        C601   1.495       .  S
O425        C433   1.260       .  A
O426        C433   1.259       .  A
C427        O434   1.260       .  A
C427        O428   1.256       .  A
C427        C548   1.494       .  S
C429        O431   1.258       .  A
C429        O435   1.265       .  A
C429        C971   1.490       .  S
C433        C581   1.481       .  S
In436       O438   2.239       .  S
In436       O439   2.240       .  S
In436       O447   2.263       .  S
In436       O441   2.266       .  S
In436       O443   2.243       .  S
In436       O444   2.242       .  S
In436       O445   2.268       .  S
In436       O448   2.237       .  S
C437        O443   1.261       .  A
C437        O445   1.264       .  A
C437        C668   1.490       .  S
O438        C446   1.263       .  A
O439        C446   1.257       .  A
C440        O447   1.255       .  A
C440        O441   1.260       .  A
C440        C551   1.487       .  S
C442        O444   1.259       .  A
C442        O448   1.257       .  A
C442        C571   1.474       .  S
C446        C538   1.481       .  S
C449        C450   1.561       .  S
C449        C455   1.522       .  S
C449        C453   1.529       .  S
C449        C658   1.551       .  S
C450        H457   1.074       .  S
C450        C451   1.384       .  D
C451        C452   1.553       .  S
C451       C1131   1.536       .  S
C452        C456   1.571       .  S
C452        C454   1.546       .  S
C452        H458   1.096       .  S
C453        H459   1.089       .  S
C453        C454   1.357       .  D
C454        C518   1.483       .  S
C455        H460   1.080       .  S
C455        C456   1.366       .  D
C456        C528   1.523       .  S
C461        C462   1.539       .  S
C461        C467   1.544       .  S
C461        C465   1.556       .  S
C461        C701   1.546       .  S
C462        H469   1.087       .  S
C462        C463   1.351       .  D
C463        C464   1.533       .  S
C463        C508   1.467       .  S
C464        C468   1.542       .  S
C464        C466   1.551       .  S
C464        H470   1.082       .  S
C465        H471   1.075       .  S
C465        C466   1.374       .  D
C466       C1108   1.523       .  S
C467        H472   1.084       .  S
C467        C468   1.377       .  D
C468        C531   1.531       .  S
C473        C474   1.543       .  S
C473        C479   1.538       .  S
C473        C477   1.550       .  S
C473        C541   1.542       .  S
C474        H481   1.087       .  S
C474        C475   1.364       .  D
C475        C476   1.516       .  S
C475        C521   1.465       .  S
C476        C480   1.546       .  S
C476        C478   1.545       .  S
C476        H482   1.111       .  S
C477        H483   1.083       .  S
C477        C478   1.372       .  D
C478       C1088   1.496       .  S
C479        H484   1.080       .  S
C479        C480   1.361       .  D
C480        C501   1.497       .  S
C485        C486   1.544       .  S
C485        C491   1.542       .  S
C485        C489   1.539       .  S
C485        C561   1.544       .  S
C486        H493   1.084       .  S
C486        C487   1.380       .  D
C487        C488   1.562       .  S
C487       C1071   1.519       .  S
C488        C492   1.551       .  S
C488        C490   1.525       .  S
C488        H494   1.103       .  S
C489        H495   1.087       .  S
C489        C490   1.351       .  D
C490        C511   1.474       .  S
C491        H496   1.081       .  S
C491        C492   1.366       .  D
C492        C498   1.488       .  S
C497        C498   1.395       .  A
C497        C502   1.388   1_556  A
C497        H504   1.083       .  S
C498        C499   1.410       .  A
C499        C500   1.412   1_556  A
C499       Br506   1.913       .  S
C500        C501   1.408       .  A
C500        H505   1.083       .  S
C501        C502   1.420       .  A
C502       Br503   1.918       .  S
C507        C508   1.395       .  A
C507        C512   1.388   1_655  A
C507        H514   1.083       .  S
C508        C509   1.403       .  A
C509        C510   1.404   1_655  A
C509       Br516   1.917       .  S
C510        C511   1.408       .  A
C510        H515   1.081       .  S
C511        C512   1.406       .  A
C512       Br513   1.913       .  S
C517        C518   1.412       .  A
C517        C522   1.393   1_655  A
C517        H524   1.084       .  S
C518        C519   1.405       .  A
C519        C520   1.388   1_655  A
C519       Br526   1.896       .  S
C520        C521   1.398       .  A
C520        H525   1.082       .  S
C521        C522   1.402       .  A
C522       Br523   1.920       .  S
C527        C528   1.398   1_556  A
C527        C532   1.405       .  A
C527        H534   1.074   1_556  S
C528        C529   1.418   1_554  A
C529        C530   1.407       .  A
C529       Br536   1.923   1_556  S
C530        C531   1.413       .  A
C530        H535   1.082       .  S
C531        C532   1.432       .  A
C532       Br533   1.923       .  S
C537        C538   1.393       .  A
C537        C542   1.393       .  A
C537        H544   1.084       .  S
C538        C539   1.410       .  A
C539        C540   1.401       .  A
C539       Br546   1.921       .  S
C540        C541   1.413       .  A
C540        H545   1.078       .  S
C541        C542   1.433       .  A
C542       Br543   1.921       .  S
C547        C548   1.409       .  A
C547        C552   1.405       .  A
C547        H554   1.083       .  S
C548        C549   1.417       .  A
C549        C550   1.399       .  A
C549       Br556   1.921       .  S
C550        C551   1.401       .  A
C550        H555   1.084       .  S
C551        C552   1.414       .  A
C552       Br553   1.921       .  S
C557        C558   1.403       .  A
C557        C562   1.400       .  A
C557        H564   1.084       .  S
C558        C559   1.406       .  A
C559        C560   1.402       .  A
C559       Br566   1.921       .  S
C560        C561   1.419       .  A
C560        H565   1.074       .  S
C561        C562   1.423       .  A
C562       Br563   1.922       .  S
C567        C568   1.403       .  A
C567        C572   1.396       .  A
C567        H574   1.084       .  S
C568        C569   1.410       .  A
C569        C570   1.395       .  A
C569       Br576   1.923       .  S
C570        C571   1.405       .  A
C570        H575   1.083       .  S
C571        C572   1.411       .  A
C572       Br573   1.921       .  S
C577        C578   1.403       .  A
C577        C582   1.401       .  A
C577        H584   1.084       .  S
C578        C579   1.411       .  A
C579        C580   1.394       .  A
C579       Br586   1.923       .  S
C580        C581   1.404       .  A
C580        H585   1.083       .  S
C581        C582   1.415       .  A
C582       Br583   1.921       .  S
C587        C588   1.407       .  A
C587        C592   1.404       .  A
C587        H594   1.083       .  S
C588        C589   1.415       .  A
C589        C590   1.404       .  A
C589       Br596   1.921       .  S
C590        C591   1.408       .  A
C590        H595   1.083       .  S
C591        C592   1.415       .  A
C592       Br593   1.920       .  S
C597        C598   1.406       .  A
C597        C602   1.399       .  A
C597        H604   1.084       .  S
C598        C599   1.416       .  A
C599        C600   1.407       .  A
C599       Br606   1.920       .  S
C600        C601   1.408       .  A
C600        H605   1.083       .  S
C601        C602   1.416       .  A
C602       Br603   1.923       .  S
C607        C608   1.405       .  A
C607        C612   1.402       .  A
C607        H614   1.083       .  S
C608        C609   1.415       .  A
C609        C610   1.398       .  A
C609       Br616   1.924       .  S
C610        C611   1.406       .  A
C610        H615   1.084       .  S
C611        C612   1.414       .  A
C612       Br613   1.920       .  S
C617        C618   1.406       .  A
C617        C622   1.407       .  A
C617        H624   1.083       .  S
C618        C619   1.413       .  A
C619        C620   1.397       .  A
C619       Br626   1.923       .  S
C620        C621   1.405       .  A
C620        H625   1.083       .  S
C621        C622   1.417       .  A
C622       Br623   1.921       .  S
C627        C628   1.404       .  A
C627        C632   1.394       .  A
C627        H634   1.083       .  S
C628        C629   1.413       .  A
C629        C630   1.398       .  A
C629       Br636   1.922       .  S
C630        C631   1.406       .  A
C630        H635   1.083       .  S
C631        C632   1.413       .  A
C632       Br633   1.923       .  S
C637        C638   1.405       .  A
C637        C642   1.402       .  A
C637        H644   1.084       .  S
C638        C639   1.412       .  A
C639        C640   1.391       .  A
C639       Br646   1.923       .  S
C640        C641   1.402       .  A
C640        H645   1.084       .  S
C641        C642   1.414       .  A
C642       Br643   1.921       .  S
C647        C648   1.407       .  A
C647        C652   1.405       .  A
C647        H654   1.083       .  S
C648        C649   1.417       .  A
C649        C650   1.405       .  A
C649       Br656   1.922       .  S
C650        C651   1.408       .  A
C650        H655   1.083       .  S
C651        C652   1.416       .  A
C652       Br653   1.920       .  S
C657        C658   1.418       .  A
C657        C662   1.397       .  A
C657        H664   1.084       .  S
C658        C659   1.419       .  A
C659        C660   1.408       .  A
C659       Br666   1.915       .  S
C660        C661   1.408       .  A
C660        H665   1.083       .  S
C661        C662   1.408       .  A
C662       Br663   1.923       .  S
C667        C668   1.406       .  A
C667        C672   1.405   1_455  A
C667        H674   1.083       .  S
C668        C669   1.412       .  A
C669        C670   1.402   1_455  A
C669       Br676   1.921       .  S
C670        C671   1.406       .  A
C670        H675   1.083       .  S
C671        C672   1.416       .  A
C672       Br673   1.920       .  S
C677        C678   1.405       .  A
C677        C682   1.401       .  A
C677        H684   1.083       .  S
C678        C679   1.415       .  A
C679        C680   1.405       .  A
C679       Br686   1.921       .  S
C680        C681   1.407       .  A
C680        H685   1.083       .  S
C681        C682   1.415       .  A
C682       Br683   1.922       .  S
C687        C688   1.403       .  A
C687        C692   1.399       .  A
C687        H694   1.084       .  S
C688        C689   1.410       .  A
C689        C690   1.396       .  A
C689       Br696   1.922       .  S
C690        C691   1.405       .  A
C690        H695   1.083       .  S
C691        C692   1.414       .  A
C692       Br693   1.921       .  S
C697        C698   1.408       .  A
C697        C702   1.406       .  A
C697        H704   1.083       .  S
C698        C699   1.409       .  A
C699        C700   1.398       .  A
C699       Br706   1.921       .  S
C700        C701   1.415       .  A
C700        H705   1.084       .  S
C701        C702   1.420       .  A
C702       Br703   1.918       .  S
C707        C708   1.407       .  A
C707        C712   1.409   1_655  A
C707        H714   1.083       .  S
C708        C709   1.410       .  A
C709        C710   1.398   1_655  A
C709       Br716   1.921       .  S
C710        C711   1.407       .  A
C710        H715   1.083       .  S
C711        C712   1.417       .  A
C712       Br713   1.920       .  S
C717        C718   1.404       .  A
C717        C722   1.398       .  A
C717        H724   1.083       .  S
C718        C719   1.413       .  A
C719        C720   1.401       .  A
C719       Br726   1.921       .  S
C720        C721   1.405       .  A
C720        H725   1.084       .  S
C721        C722   1.411       .  A
C722       Br723   1.922       .  S
C727        C728   1.407       .  A
C727        C732   1.405       .  A
C727        H734   1.083       .  S
C728        C729   1.416       .  A
C729        C730   1.406       .  A
C729       Br736   1.921       .  S
C730        C731   1.408       .  A
C730        H735   1.083       .  S
C731        C732   1.416       .  A
C732       Br733   1.920       .  S
C737        C738   1.408   1_565  A
C737        C742   1.410       .  A
C737        H744   1.083   1_565  S
C738        C739   1.412   1_545  A
C739        C740   1.398       .  A
C739       Br746   1.922   1_565  S
C740        C741   1.407       .  A
C740        H745   1.084       .  S
C741        C742   1.415       .  A
C742       Br743   1.917       .  S
C747        C748   1.406       .  A
C747        C752   1.401   1_655  A
C747        H754   1.083       .  S
C748        C749   1.417       .  A
C749        C750   1.406   1_655  A
C749       Br756   1.921       .  S
C750        C751   1.406       .  A
C750        H755   1.083       .  S
C751        C752   1.412       .  A
C752       Br753   1.921       .  S
C757        C758   1.406       .  A
C757        C762   1.399       .  A
C757        H764   1.083       .  S
C758        C759   1.415       .  A
C759        C760   1.404       .  A
C759       Br766   1.920       .  S
C760        C761   1.407       .  A
C760        H765   1.083       .  S
C761        C762   1.416       .  A
C762       Br763   1.923       .  S
C767        C768   1.406       .  A
C767        C772   1.406       .  A
C767        H774   1.083       .  S
C768        C769   1.412       .  A
C769        C770   1.402       .  A
C769       Br776   1.922       .  S
C770        C771   1.406       .  A
C770        H775   1.083       .  S
C771        C772   1.414       .  A
C772       Br773   1.919       .  S
C777        C778   1.405       .  A
C777        C782   1.398       .  A
C777        H784   1.083       .  S
C778        C779   1.412       .  A
C779        C780   1.397       .  A
C779       Br786   1.922       .  S
C780        C781   1.402       .  A
C780        H785   1.084       .  S
C781        C782   1.409       .  A
C782       Br783   1.921       .  S
C787        C788   1.404       .  A
C787        C792   1.403   1_655  A
C787        H794   1.084       .  S
C788        C789   1.410       .  A
C789        C790   1.402   1_655  A
C789       Br796   1.919       .  S
C790        C791   1.406       .  A
C790        H795   1.083       .  S
C791        C792   1.415       .  A
C792       Br793   1.922       .  S
C797        C798   1.404       .  A
C797        C802   1.399       .  A
C797        H804   1.084       .  S
C798        C799   1.413       .  A
C799        C800   1.399       .  A
C799       Br806   1.921       .  S
C800        C801   1.405       .  A
C800        H805   1.083       .  S
C801        C802   1.414       .  A
C802       Br803   1.921       .  S
C807        C808   1.408       .  A
C807        C812   1.406       .  A
C807        H814   1.083       .  S
C808        C809   1.414       .  A
C809        C810   1.401       .  A
C809       Br816   1.922       .  S
C810        C811   1.407       .  A
C810        H815   1.083       .  S
C811        C812   1.416       .  A
C812       Br813   1.920       .  S
C817        C818   1.408       .  A
C817        C822   1.406       .  A
C817        H824   1.078       .  S
C818        C819   1.429       .  A
C819        C820   1.397       .  A
C819       Br826   1.923       .  S
C820        C821   1.398       .  A
C820        H825   1.084       .  S
C821        C822   1.415       .  A
C822       Br823   1.919       .  S
C827        C828   1.410       .  A
C827        C832   1.415   1_554  A
C827        H834   1.083       .  S
C828        C829   1.416   1_554  A
C829        C830   1.387       .  A
C829       Br836   1.920   1_556  S
C830        C831   1.399       .  A
C830        H835   1.077       .  S
C831        C832   1.410       .  A
C832       Br833   1.914       .  S
C837        C838   1.414       .  A
C837        C842   1.404       .  A
C837        H844   1.079       .  S
C838        C839   1.431       .  A
C839        C840   1.397       .  A
C839       Br846   1.920       .  S
C840        C841   1.396       .  A
C840        H845   1.084       .  S
C841        C842   1.412       .  A
C842       Br843   1.921       .  S
C847        C848   1.403       .  A
C847        C852   1.387       .  A
C847        H854   1.082       .  S
C848        C849   1.417       .  A
C849        C850   1.396       .  A
C849       Br856   1.918       .  S
C850        C851   1.401   1_565  A
C850        H855   1.083   1_565  S
C851        C852   1.418   1_545  A
C852       Br853   1.928   1_565  S
C857        C858   1.410       .  A
C857        C862   1.407       .  A
C857        H864   1.078       .  S
C858        C859   1.429       .  A
C859        C860   1.397       .  A
C859       Br866   1.923       .  S
C860        C861   1.397       .  A
C860        H865   1.084       .  S
C861        C862   1.417       .  A
C862       Br863   1.921       .  S
C867        C868   1.406   1_565  A
C867        C872   1.390       .  A
C867        H874   1.082   1_565  S
C868        C869   1.411   1_545  A
C869        C870   1.390       .  A
C869       Br876   1.918   1_565  S
C870        C871   1.405       .  A
C870        H875   1.082       .  S
C871        C872   1.409       .  A
C872       Br873   1.921       .  S
C877        C878   1.406       .  A
C877        C882   1.409   1_554  A
C877        H884   1.083       .  S
C878        C879   1.410       .  A
C879        C880   1.388   1_554  A
C879       Br886   1.920       .  S
C880        C881   1.402       .  A
C880        H885   1.080       .  S
C881        C882   1.409       .  A
C882       Br883   1.912       .  S
C887        C888   1.404       .  A
C887        C892   1.401       .  A
C887        H894   1.083       .  S
C888        C889   1.409       .  A
C889        C890   1.402       .  A
C889       Br896   1.921       .  S
C890        C891   1.415       .  A
C890        H895   1.075       .  S
C891        C892   1.421       .  A
C892       Br893   1.922       .  S
C897        C898   1.416       .  A
C897        C902   1.399       .  A
C897        H904   1.073       .  S
C898        C899   1.422       .  A
C899        C900   1.400       .  A
C899       Br906   1.927       .  S
C900        C901   1.403       .  A
C900        H905   1.084       .  S
C901        C902   1.406       .  A
C902       Br903   1.922       .  S
C907        C908   1.397       .  A
C907        C912   1.388   1_554  A
C907        H914   1.084       .  S
C908        C909   1.408   1_554  A
C909        C910   1.414       .  A
C909       Br916   1.914   1_556  S
C910        C911   1.410       .  A
C910        H915   1.083       .  S
C911        C912   1.424       .  A
C912       Br913   1.923       .  S
C917        C918   1.414       .  A
C917        C922   1.400       .  A
C917        H924   1.075       .  S
C918        C919   1.420       .  A
C919        C920   1.397       .  A
C919       Br926   1.919       .  S
C920        C921   1.403       .  A
C920        H925   1.083       .  S
C921        C922   1.409       .  A
C922       Br923   1.921       .  S
C927        C928   1.402       .  A
C927        C932   1.391       .  A
C927        H934   1.082       .  S
C928        C929   1.413       .  A
C929        C930   1.391       .  A
C929       Br936   1.924       .  S
C930        C931   1.406       .  A
C930        H935   1.082       .  S
C931        C932   1.410       .  A
C932       Br933   1.922       .  S
C937        C938   1.416       .  A
C937        C942   1.402       .  A
C937        H944   1.074       .  S
C938        C939   1.424       .  A
C939        C940   1.400       .  A
C939       Br946   1.925       .  S
C940        C941   1.402       .  A
C940        H945   1.084       .  S
C941        C942   1.405       .  A
C942       Br943   1.920       .  S
C947        C948   1.396       .  A
C947        C952   1.390       .  A
C947        H954   1.084       .  S
C948        C949   1.406       .  A
C949        C950   1.401       .  A
C949       Br956   1.915       .  S
C950        C951   1.402       .  A
C950        H955   1.083       .  S
C951        C952   1.410       .  A
C952       Br953   1.915       .  S
C957        C958   1.399       .  A
C957        C962   1.397   1_554  A
C957        H964   1.080       .  S
C958        C959   1.413       .  A
C959        C960   1.404   1_554  A
C959       Br966   1.918       .  S
C960        C961   1.411       .  A
C960        H965   1.083       .  S
C961        C962   1.423       .  A
C962       Br963   1.912       .  S
C967        C968   1.419       .  A
C967        C972   1.396       .  A
C967        H974   1.083       .  S
C968        C969   1.424       .  A
C969        C970   1.408       .  A
C969       Br976   1.915       .  S
C970        C971   1.407       .  A
C970        H975   1.084       .  S
C971        C972   1.405       .  A
C972       Br973   1.921       .  S
C977        C978   1.404       .  A
C977        C982   1.401       .  A
C977        H984   1.083       .  S
C978        C979   1.408       .  A
C979        C980   1.403       .  A
C979       Br986   1.921       .  S
C980        C981   1.415       .  A
C980        H985   1.075       .  S
C981        C982   1.422       .  A
C982       Br983   1.926       .  S
C987        C988   1.404       .  A
C987        C992   1.392       .  A
C987        H994   1.083       .  S
C988        C989   1.409       .  A
C989        C990   1.411       .  A
C989       Br996   1.911       .  S
C990        C991   1.406   1_556  A
C990        H995   1.083   1_556  S
C991        C992   1.417   1_554  A
C992       Br993   1.926   1_556  S
C997        C998   1.405       .  A
C997       C1002   1.403       .  A
C997       H1004   1.083       .  S
C998        C999   1.408       .  A
C999       C1000   1.399       .  A
C999      Br1006   1.922       .  S
C1000      C1001   1.413       .  A
C1000      H1005   1.079       .  S
C1001      C1002   1.418       .  A
C1002     Br1003   1.921       .  S
C1007      C1008   1.403       .  A
C1007      C1012   1.394   1_655  A
C1007      H1014   1.080       .  S
C1008      C1009   1.409       .  A
C1009      C1010   1.387   1_655  A
C1009     Br1016   1.907       .  S
C1010      C1011   1.396       .  A
C1010      H1015   1.079       .  S
C1011      C1012   1.408       .  A
C1012     Br1013   1.917       .  S
C1017      C1018   1.415       .  A
C1017      C1022   1.400       .  A
C1017      H1024   1.075       .  S
C1018      C1019   1.422       .  A
C1019      C1020   1.399       .  A
C1019     Br1026   1.920       .  S
C1020      C1021   1.402       .  A
C1020      H1025   1.083       .  S
C1021      C1022   1.408       .  A
C1022     Br1023   1.921       .  S
C1027      C1028   1.400       .  A
C1027      C1032   1.393   1_655  A
C1027      H1034   1.080       .  S
C1028      C1029   1.409       .  A
C1029      C1030   1.398   1_655  A
C1029     Br1036   1.909   1_554  S
C1030      C1031   1.398       .  A
C1030      H1035   1.083       .  S
C1031      C1032   1.408       .  A
C1032     Br1033   1.918       .  S
C1037      C1038   1.407   1_556  A
C1037      C1042   1.390       .  A
C1037      H1044   1.083   1_556  S
C1038      C1039   1.416   1_554  A
C1039      C1040   1.418       .  A
C1039     Br1046   1.911   1_556  S
C1040      C1041   1.409       .  A
C1040      H1045   1.083       .  S
C1041      C1042   1.421       .  A
C1042     Br1043   1.928       .  S
C1047      C1048   1.404       .  A
C1047      C1052   1.405       .  A
C1047      H1054   1.083       .  S
C1048      C1049   1.413       .  A
C1049      C1050   1.398       .  A
C1049     Br1056   1.922       .  S
C1050      C1051   1.410       .  A
C1050      H1055   1.083       .  S
C1051      C1052   1.418       .  A
C1052     Br1053   1.922       .  S
C1057      C1058   1.421       .  A
C1057      C1062   1.403       .  A
C1057      H1064   1.079       .  S
C1058      C1059   1.422       .  A
C1059      C1060   1.414       .  A
C1059     Br1066   1.921       .  S
C1060      C1061   1.409       .  A
C1060      H1065   1.083       .  S
C1061      C1062   1.398       .  A
C1062     Br1063   1.915       .  S
C1067      C1068   1.411       .  A
C1067      C1072   1.398       .  A
C1067      H1074   1.083       .  S
C1068      C1069   1.408       .  A
C1069      C1070   1.414       .  A
C1069     Br1076   1.916       .  S
C1070      C1071   1.421       .  A
C1070      H1075   1.081       .  S
C1071      C1072   1.415       .  A
C1072     Br1073   1.920       .  S
C1077      C1078   1.411       .  A
C1077      C1082   1.395       .  A
C1077      H1084   1.073       .  S
C1078      C1079   1.424       .  A
C1079      C1080   1.410       .  A
C1079     Br1086   1.922       .  S
C1080      C1081   1.411       .  A
C1080      H1085   1.078       .  S
C1081      C1082   1.417       .  A
C1082     Br1083   1.929       .  S
C1087      C1088   1.409       .  A
C1087      C1092   1.411       .  A
C1087      H1094   1.082       .  S
C1088      C1089   1.403       .  A
C1089      C1090   1.403       .  A
C1089     Br1096   1.918       .  S
C1090      C1091   1.417       .  A
C1090      H1095   1.083       .  S
C1091      C1092   1.410       .  A
C1092     Br1093   1.905       .  S
C1097      C1098   1.399       .  A
C1097      C1102   1.408       .  A
C1097      H1104   1.083       .  S
C1098      C1099   1.417       .  A
C1099      C1100   1.400       .  A
C1099     Br1106   1.922       .  S
C1100      C1101   1.405       .  A
C1100      H1105   1.081       .  S
C1101      C1102   1.430       .  A
C1102     Br1103   1.915       .  S
C1107      C1108   1.403       .  A
C1107      C1112   1.386       .  A
C1107      H1114   1.074       .  S
C1108      C1109   1.419       .  A
C1109      C1110   1.420       .  A
C1109     Br1116   1.918       .  S
C1110      C1111   1.417       .  A
C1110      H1115   1.082       .  S
C1111      C1112   1.424       .  A
C1112     Br1113   1.933       .  S
C1117      C1118   1.407       .  A
C1117      C1122   1.406       .  A
C1117      H1124   1.083       .  S
C1118      C1119   1.401       .  A
C1119      C1120   1.404       .  A
C1119     Br1126   1.915       .  S
C1120      C1121   1.419       .  A
C1120      H1125   1.077       .  S
C1121      C1122   1.421       .  A
C1122     Br1123   1.923       .  S
C1127      C1128   1.392       .  A
C1127      C1132   1.403       .  A
C1127      H1134   1.085       .  S
C1128      C1129   1.408       .  A
C1129      C1130   1.413       .  A
C1129     Br1136   1.917       .  S
C1130      C1131   1.418       .  A
C1130      H1135   1.082       .  S
C1131      C1132   1.434       .  A
C1132     Br1133   1.910       .  S
C1137      C1138   1.397       .  A
C1137      C1142   1.393       .  A
C1137      H1144   1.083       .  S
C1138      C1139   1.422       .  A
C1139      C1140   1.415       .  A
C1139     Br1146   1.918       .  S
C1140      C1141   1.408       .  A
C1140      H1145   1.085       .  S
C1141      C1142   1.411       .  A
C1142     Br1143   1.920   1_545  S
C1147      C1148   1.404       .  A
C1147      C1152   1.413       .  A
C1147      H1154   1.083       .  S
C1148      C1149   1.410       .  A
C1149      C1150   1.395       .  A
C1149     Br1156   1.900       .  S
C1150      C1151   1.404       .  A
C1150      H1155   1.080       .  S
C1151      C1152   1.426       .  A
C1152     Br1153   1.921       .  S
C1157      C1158   1.402       .  A
C1157      C1162   1.409       .  A
C1157      H1164   1.084       .  S
C1158      C1159   1.409       .  A
C1159      C1160   1.396       .  A
C1159     Br1166   1.919   1_545  S
C1160      C1161   1.410       .  A
C1160      H1165   1.078       .  S
C1161      C1162   1.424       .  A
C1162     Br1163   1.921       .  S
C1167      C1168   1.397       .  A
C1167      C1172   1.407       .  A
C1167      H1174   1.083       .  S
C1168      C1169   1.410       .  A
C1169      C1170   1.405       .  A
C1169     Br1176   1.910       .  S
C1170      C1171   1.408       .  A
C1170      H1175   1.082       .  S
C1171      C1172   1.429       .  A
C1172     Br1173   1.924       .  S
C1177      C1178   1.423       .  A
C1177      C1182   1.398       .  A
C1177      H1184   1.074       .  S
C1178      C1179   1.419       .  A
C1179      C1180   1.409       .  A
C1179     Br1186   1.920       .  S
C1180      C1181   1.406       .  A
C1180      H1185   1.083       .  S
C1181      C1182   1.401       .  A
C1182     Br1183   1.924       .  S
C1187      C1188   1.411       .  A
C1187      C1192   1.393       .  A
C1187      H1194   1.084       .  S
C1188      C1189   1.410       .  A
C1189      C1190   1.419       .  A
C1189     Br1196   1.905       .  S
C1190      C1191   1.418       .  A
C1190      H1195   1.082       .  S
C1191      C1192   1.412       .  A
C1192     Br1193   1.919       .  S
C1197      C1198   1.413       .  A
C1197      C1202   1.414       .  A
C1197      H1204   1.080       .  S
C1198      C1199   1.425       .  A
C1199      C1200   1.399       .  A
C1199     Br1206   1.922       .  S
C1200      C1201   1.402       .  A
C1200      H1205   1.082       .  S
C1201      C1202   1.421       .  A
C1202     Br1203   1.919       .  S
C1207      C1208   1.402       .  A
C1207      C1212   1.396       .  A
C1207      H1214   1.081       .  S
C1208      C1209   1.403       .  A
C1209      C1210   1.409       .  A
C1209     Br1216   1.909       .  S
C1210      C1211   1.417       .  A
C1210      H1215   1.080       .  S
C1211      C1212   1.420       .  A
C1212     Br1213   1.926       .  S
