geometry optimzed in LAMMPS
_audit_creation_date              2020-11-30 
_audit_creation_method            'lammps2cif' 
_symmetry_space_group_name_H-M    'P1' 
_symmetry_Int_Tables_number       1 
_symmetry_cell_setting            triclinic 
loop_ 
_symmetry_equiv_pos_as_xyz 
  x,y,z 
_cell_length_a                    35.26668261357366 
_cell_length_b                    35.51020511970862 
_cell_length_c                    25.29398574759859 
_cell_angle_alpha                 89.50030714256252 
_cell_angle_beta                  88.63665002851309 
_cell_angle_gamma                 122.28520113406663 
loop_ 
_atom_site_label 
_atom_site_type_symbol 
_atom_site_fract_x 
_atom_site_fract_y 
_atom_site_fract_z 
_atom_site_charge 
C1          C  0.16106207  0.07612448  0.36160192     0.00070
C2          C  0.19118963  0.09353888  0.40078069     0.00070
C3          C  0.18587223  0.09582419  0.16721352     0.00070
C4          C  0.14483070  0.06605485  0.19065083     0.00070
O5          O  0.08040218  0.99396744  0.20069850    -0.74920
O6          O  0.05585094  0.47575061  0.35035319    -0.74950
O7          O  0.12674992  0.03646826  0.28982982    -0.75010
O8          O  0.01527915  0.43672373  0.26556516    -0.75060
O9          O  0.04682817  0.40557722  0.23021841    -0.74990
O10         O  0.14123227  0.49522729  0.33372832    -0.74970
O11         O  0.05477240  0.41473521  0.33764666    -0.74940
O12         O  0.13803989  0.49292520  0.21935082    -0.75010
Ni13       Ni  0.06833005  0.48821209  0.27638645     1.25410
Ni14       Ni  0.09866935  0.44888926  0.27936916     1.25360
C15         C  0.12208095  0.01382839  0.19504477     0.87260
C16         C  0.03666005  0.43445839  0.35963283     0.87190
C17         C  0.14608697  0.03404413  0.32799797     0.87220
C18         C  0.01017533  0.40625356  0.23734084     0.87390
C19         C  0.46059762  0.38106120  0.21610914     0.00070
C20         C  0.44235227  0.34598881  0.18245872     0.00070
C21         C  0.48699772  0.41017364  0.37562948     0.00070
C22         C  0.46689294  0.36839776  0.39951215     0.00070
C23         C  0.46256056  0.06931973  0.20805116     0.00070
C24         C  0.45285077  0.08960543  0.16898073     0.00070
C25         C  0.44706415  0.09100588  0.40252515     0.00070
C26         C  0.46699244  0.07280653  0.37426047     0.00070
O27         O  0.01794946  0.05832488  0.24288814    -0.74920
O28         O  0.08916292  0.05860605  0.34992190    -0.74950
O29         O  0.02594590  0.06288311  0.36225381    -0.75010
O30         O  0.08103398  0.05230287  0.24072747    -0.75060
O31         O  0.12697978  0.12366020  0.22759863    -0.74990
O32         O  0.04899522  0.13135047  0.34250955    -0.74970
O33         O  0.13636402  0.12978498  0.33243216    -0.74940
O34         O  0.04403855  0.12834521  0.23768851    -0.75010
Ni35       Ni  0.05162776  0.05631099  0.29902525     1.25410
Ni36       Ni  0.09177017  0.13266001  0.28538148     1.25360
C37         C  0.01156838  0.08833223  0.22854974     0.87260
C38         C  0.12837694  0.09173986  0.35130843     0.87190
C39         C  0.01861204  0.09352030  0.36508090     0.87220
C40         C  0.11637864  0.08315671  0.21833626     0.87390
O41         O  0.46618638  0.03001576  0.30760725    -0.74920
O42         O  0.47055190  0.45014243  0.21872892    -0.74950
O43         O  0.45356372  0.00175609  0.20272644    -0.75010
O44         O  0.48799752  0.46983082  0.32663414    -0.75060
O45         O  0.41981901  0.41581898  0.34928535    -0.74990
O46         O  0.39763569  0.49146172  0.24837170    -0.74970
O47         O  0.40242286  0.40181271  0.24770214    -0.74940
O48         O  0.40653351  0.48955638  0.35342703    -0.75010
Ni49       Ni  0.47203824  0.48965852  0.26485037     1.25410
Ni50       Ni  0.40061887  0.44595320  0.29880860     1.25360
C51         C  0.44212681  0.02801539  0.34483790     0.87260
C52         C  0.44033017  0.41036138  0.22543004     0.87190
C53         C  0.43161913  0.01748094  0.21576060     0.87220
C54         C  0.46259504  0.43283787  0.35202382     0.87390
C55         C  0.08893487  0.14793417  0.85999155     0.00070
C56         C  0.10762408  0.18438130  0.89211714     0.00070
C57         C  0.11152734  0.43908193  0.89776502     0.00070
C58         C  0.08588308  0.45326327  0.87545372     0.00070
C59         C  0.42221540  0.46991139  0.87387405     0.00070
C60         C  0.38084991  0.44615580  0.90073248     0.00070
C61         C  0.08579604  0.44638587  0.71168192     0.00070
C62         C  0.11034620  0.43425906  0.68129696     0.00070
O63         O  0.14426957  0.02865667  0.74295372    -0.74920
O64         O  0.14396900  0.12228557  0.83665424    -0.74950
O65         O  0.14392597  0.03488384  0.84703288    -0.75010
O66         O  0.14186652  0.11320833  0.73044406    -0.75060
O67         O  0.07028161  0.06676848  0.74060149    -0.74990
O68         O  0.07315247  0.00974219  0.86173684    -0.74970
O69         O  0.07225406  0.07528340  0.85225591    -0.74940
O70         O  0.07381635  0.00295464  0.74410350    -0.75010
Ni71       Ni  0.14786741  0.07739299  0.78965901     1.25410
Ni72       Ni  0.07075554  0.03734794  0.79978408     1.25360
C73         C  0.10436389  0.99602406  0.73218123     0.87260
C74         C  0.10532366  0.11464182  0.85470295     0.87190
C75         C  0.10465122  0.00372355  0.86627255     0.87220
C76         C  0.10141259  0.10171635  0.71852454     0.87390
C77         C  0.08229409  0.12635873  0.68735305     0.00070
C78         C  0.10708363  0.16681589  0.66112173     0.00070
C79         C  0.36963377  0.43579008  0.66785486     0.00070
C80         C  0.39982819  0.44914015  0.70685970     0.00070
O81         O  0.44822409  0.99798677  0.76642047    -0.74920
O82         O  0.05055675  0.10882215  0.78924340    -0.74950
O83         O  0.48765051  0.03993085  0.85146813    -0.75010
O84         O  0.00961802  0.06096693  0.70153743    -0.75060
O85         O  0.50833804  0.11928973  0.71660351    -0.74990
O86         O  0.42647545  0.03806199  0.83616779    -0.74970
O87         O  0.50843864  0.12560521  0.82845314    -0.74940
O88         O  0.42091898  0.03127291  0.72698354    -0.75010
Ni89       Ni  0.50144614  0.05049545  0.77719808     1.25410
Ni90       Ni  0.46265136  0.08173859  0.77640198     1.25360
C91         C  0.42077882  0.99479084  0.73455976     0.87260
C92         C  0.04774506  0.13080860  0.82426172     0.87190
C93         C  0.44578892  0.02022709  0.85977248     0.87220
C94         C  0.02939993  0.10223838  0.69398974     0.87390
O95         O  0.50100029  0.39309396  0.85401056    -0.74920
O96         O  0.41974144  0.39085956  0.73837697    -0.74950
O97         O  0.50628000  0.38270342  0.74604244    -0.75010
O98         O  0.42746436  0.40520140  0.84152298    -0.75060
O99         O  0.48451386  0.47326891  0.82472103    -0.74990
O100        O  0.01892271  0.43862081  0.70024334    -0.74970
O101        O  0.46944026  0.46008814  0.71537484    -0.74940
O102        O  0.04489619  0.44941845  0.80624084    -0.75010
Ni103      Ni  0.46005032  0.38709968  0.79410746     1.25410
Ni104      Ni  0.50617358  0.45777844  0.76275901     1.25360
C105        C  0.04099693  0.42688566  0.84535926     0.87260
C106        C  0.42936243  0.42897326  0.71644113     0.87190
C107        C  0.03355487  0.41599417  0.71379426     0.87220
C108        C  0.44586303  0.44746300  0.84771367     0.87390
C109        C  0.29941715  0.28647805  0.03354650     0.00070
C110        C  0.25596800  0.24913321  0.03260746     0.00070
C111        C  0.03201674  0.28819408  0.03715772     0.00070
C112        C  0.03619986  0.25116761  0.03395040     0.00070
C113        C  0.30363494  0.02564461  0.03111110     0.00070
C114        C  0.26541466  0.02727749  0.02995938     0.00070
C115        C  0.29649676  0.01843234  0.54407201     0.00070
C116        C  0.26154364  0.02480524  0.55441148     0.00070
C117        C  0.03734650  0.28762308  0.53103140     0.00070
C118        C  0.02902235  0.24473266  0.53447069     0.00070
C119        C  0.26457430  0.24915040  0.52730002     0.00070
C120        C  0.30623492  0.28735380  0.52763754     0.00070
C121        C  0.36315636  0.40386014  0.58040322    -0.09650
C122        C  0.35728158  0.39636460  0.63518425     0.06540
C123        C  0.33231778  0.35204227  0.65495756    -0.03420
C124        C  0.31493391  0.31660879  0.62015234    -0.07870
C125        C  0.31884486  0.32433753  0.56513928     0.05660
C126        C  0.34307057  0.36901266  0.54572084    -0.02900
Br127      Br  0.35176150  0.38623226  0.47210584    -0.02590
H128        H  0.38173739  0.43756393  0.56413672     0.09570
H129        H  0.29894946  0.28301878  0.63634852     0.07590
Br130      Br  0.31771405  0.33708753  0.72796170    -0.03020
C131        C  0.35963713  0.02456277  0.59473013    -0.09650
C132        C  0.31353327  0.50051874  0.58494539     0.06540
C133        C  0.28731062  0.45624686  0.60461178    -0.03420
C134        C  0.30514966  0.43952167  0.63962937    -0.07870
C135        C  0.35147410  0.46284373  0.64810072     0.05660
C136        C  0.37907874  0.50475141  0.62179484    -0.02900
Br137      Br  0.44213609  0.03064942  0.60788692    -0.02590
H138        H  0.38132956  0.05672538  0.57536886     0.09570
H139        H  0.28366561  0.40568609  0.65505726     0.07590
Br140      Br  0.22773011  0.41669748  0.58217630    -0.03020
C141        C  0.17797265  0.16933038  0.62948265    -0.09650
C142        C  0.15690484  0.19164114  0.64653432     0.06540
C143        C  0.18044642  0.23823249  0.63519941    -0.03420
C144        C  0.21439499  0.25759510  0.59521983    -0.07870
C145        C  0.23200194  0.23341613  0.57420941     0.05660
C146        C  0.21778619  0.19199534  0.59819048    -0.02900
Br147      Br  0.25692857  0.17044042  0.59417393    -0.02590
H148        H  0.16323658  0.13429329  0.63789123     0.09570
H149        H  0.22765146  0.29157117  0.58184519     0.07590
Br150      Br  0.16969768  0.27683814  0.67638478    -0.03020
C151        C  0.07129406  0.20811420  0.54811069    -0.09650
C152        C  0.05059482  0.22880181  0.57227431     0.06540
C153        C  0.04523033  0.22556410  0.62835744    -0.03420
C154        C  0.06352222  0.20531317  0.65764299    -0.07870
C155        C  0.08262137  0.18389595  0.63204952     0.05660
C156        C  0.08283090  0.18258787  0.57694640    -0.02900
Br157      Br  0.09345174  0.14194125  0.53979904    -0.02590
H158        H  0.07517353  0.20855221  0.50550480     0.09570
H159        H  0.06237726  0.20577990  0.70043710     0.07590
Br160      Br  0.01090289  0.24407889  0.66755206    -0.03020
C161        C  0.16603778  0.00318640  0.63301828    -0.09650
C162        C  0.15763605  0.46797099  0.66663020     0.06540
C163        C  0.19471860  0.46568897  0.68218611    -0.03420
C164        C  0.23616035  0.49197911  0.65363115    -0.07870
C165        C  0.23898592  0.51909401  0.61031406     0.05660
C166        C  0.21021806  0.03457904  0.61894162    -0.02900
Br167      Br  0.23418725  0.08311015  0.66653206    -0.02590
H168        H  0.14021829  0.01023743  0.62605338     0.09570
H169        H  0.26483980  0.49213441  0.66715117     0.07590
Br170      Br  0.19074220  0.42993248  0.74189934    -0.03020
C171        C  0.03122748  0.34136746  0.58784297    -0.09650
C172        C  0.05366226  0.31910545  0.57703060     0.06540
C173        C  0.09487839  0.33493585  0.60162338    -0.03420
C174        C  0.10986162  0.36861625  0.63950404    -0.07870
C175        C  0.08868084  0.39270266  0.64763434     0.05660
C176        C  0.05177550  0.38107539  0.61548916    -0.02900
Br177      Br  0.03855594  0.42397454  0.59013975    -0.02590
H178        H  0.00129425  0.33243408  0.56667161     0.09570
H179        H  0.14068652  0.37854655  0.65856786     0.07590
Br180      Br  0.13619526  0.31930069  0.57631793    -0.03020
C181        C  0.29582280  0.33424173  0.95964505    -0.09650
C182        C  0.32095093  0.32152490  0.98870141     0.06540
C183        C  0.36840934  0.34699561  0.97829101    -0.03420
C184        C  0.38844973  0.38781125  0.94982632    -0.07870
C185        C  0.36215245  0.39899225  0.92081180     0.05660
C186        C  0.31620346  0.36673080  0.91957011    -0.02900
Br187      Br  0.29079666  0.34567859  0.85256576    -0.02590
H188        H  0.26010681  0.31817343  0.96487058     0.09570
H189        H  0.42453608  0.41031192  0.94986542     0.07590
Br190      Br  0.40797867  0.32838610  0.00003427    -0.03020
C191        C  0.38570491  0.50891854  0.95222257    -0.09650
C192        C  0.35895265  0.46958099  0.92490066     0.06540
C193        C  0.31190298  0.45252560  0.92595984    -0.03420
C194        C  0.29301184  0.46796435  0.96290829    -0.07870
C195        C  0.32048884  0.50830950  0.98807990     0.05660
C196        C  0.36707041  0.03059660  0.97656635    -0.02900
Br197      Br  0.40620237  0.09257294  0.98595709    -0.02590
H198        H  0.42165947  0.02438999  0.95300457     0.09570
H199        H  0.25690977  0.45090811  0.96764139     0.07590
Br200      Br  0.27542254  0.42558974  0.86650915    -0.03020
C201        C  0.12122084  0.38618057  0.95412141    -0.09650
C202        C  0.09593815  0.39143552  0.91533028     0.06540
C203        C  0.05331603  0.35341750  0.90646942    -0.03420
C204        C  0.03187115  0.31994436  0.94643587    -0.07870
C205        C  0.05456722  0.32188040  0.99244888     0.05660
C206        C  0.10018106  0.35501485  0.99518754    -0.02900
Br207      Br  0.13417158  0.36246639  0.05690979    -0.02590
H208        H  0.15670926  0.41004751  0.95757833     0.09570
H209        H  0.99835160  0.29181107  0.94067945     0.07590
Br210      Br  0.03605848  0.33502427  0.83543082    -0.03020
C211        C  0.19645487  0.49097351  0.90140291    -0.09650
C212        C  0.15326704  0.47397217  0.92404062     0.06540
C213        C  0.14932731  0.47949430  0.97802873    -0.03420
C214        C  0.18499050  0.49119604  0.01020046    -0.07870
C215        C  0.22885868  0.50769824  0.98944466     0.05660
C216        C  0.23464911  0.51127360  0.93320806    -0.02900
Br217      Br  0.29170234  0.54756557  0.89669261    -0.02590
H218        H  0.20041490  0.48884852  0.85915916     0.09570
H219        H  0.17805028  0.48865021  0.05242295     0.07590
Br220      Br  0.09358918  0.46465912  0.01049193    -0.03020
C221        C  0.19003034  0.20914310  0.90412851    -0.09650
C222        C  0.14703076  0.19524355  0.92565579     0.06540
C223        C  0.14394178  0.20214042  0.97969580    -0.03420
C224        C  0.18173226  0.23068448  0.00740131    -0.07870
C225        C  0.22392805  0.24059180  0.98913958     0.05660
C226        C  0.22775966  0.22830807  0.93684092    -0.02900
Br227      Br  0.28173351  0.23375274  0.90992573    -0.02590
H228        H  0.19425965  0.20474997  0.86261226     0.09570
H229        H  0.17715514  0.23748846  0.04800217     0.07590
Br230      Br  0.08941645  0.16936423  0.01945168    -0.03020
C231        C  0.10059389  0.26798359  0.96918364    -0.09650
C232        C  0.05442990  0.24544548  0.98147347     0.06540
C233        C  0.02584424  0.21639371  0.94314071    -0.03420
C234        C  0.04144213  0.19470702  0.91178707    -0.07870
C235        C  0.08797131  0.21304248  0.90362370     0.05660
C236        C  0.11608806  0.25605934  0.92470518    -0.02900
Br237      Br  0.17660897  0.29631998  0.89966227    -0.02590
H238        H  0.12456484  0.29418883  0.99365778     0.09330
H239        H  0.01671998  0.16160109  0.90202105     0.07590
Br240      Br  0.96420937  0.19876416  0.94108162    -0.03020
C241        C  0.01720847  0.21387333  0.44171708    -0.09650
C242        C  0.00270598  0.20920242  0.49519721     0.06540
C243        C  0.47161258  0.16604289  0.51560713    -0.03420
C244        C  0.46217947  0.12912184  0.48701608    -0.07870
C245        C  0.47397014  0.13288284  0.43296244     0.05660
C246        C  0.00036245  0.17626708  0.40960555    -0.02900
Br247      Br  0.00885317  0.18669208  0.33445844    -0.02590
H248        H  0.04111841  0.24662236  0.42486453     0.09570
H249        H  0.44087731  0.09655316  0.50579284     0.07590
Br250      Br  0.44118383  0.15535014  0.58313540    -0.03020
C251        C  0.34119580  0.07353812  0.46690682    -0.09650
C252        C  0.32321424  0.03145326  0.49172638     0.06540
C253        C  0.33779256  0.00429369  0.47135552    -0.03420
C254        C  0.37710616  0.02260665  0.44027467    -0.07870
C255        C  0.39737493  0.06553080  0.41766683     0.05660
C256        C  0.37520004  0.08870705  0.42693813    -0.02900
Br257      Br  0.39441106  0.14408200  0.39109316    -0.02590
H258        H  0.33038208  0.09544223  0.47965678     0.09570
H259        H  0.39335372  0.00416930  0.43853357     0.07590
Br260      Br  0.30397154  0.44153283  0.48258970    -0.03020
C261        C  0.38881082  0.09328486  0.13710031    -0.09650
C262        C  0.40650317  0.06652446  0.14547135     0.06540
C263        C  0.38331496  0.02343651  0.12248148    -0.03420
C264        C  0.34301936  0.00841338  0.09739299    -0.07870
C265        C  0.33162571  0.03852482  0.07986133     0.05660
C266        C  0.35557002  0.08195289  0.10019126    -0.02900
Br267      Br  0.35545349  0.13083419  0.06850306    -0.02590
H268        H  0.40579378  0.12622540  0.15318525     0.09570
H269        H  0.32563049  0.97520126  0.08148337     0.07590
Br270      Br  0.40756820  0.98751804  0.10528039    -0.03020
C271        C  0.00864062  0.17591444  0.16292482    -0.09650
C272        C  0.48752704  0.13308812  0.14059446     0.06540
C273        C  0.49090266  0.13200516  0.08564518    -0.03420
C274        C  0.50253719  0.16914794  0.05441859    -0.07870
C275        C  0.02160500  0.21240911  0.07437039     0.05660
C276        C  0.02929195  0.21550182  0.12989374    -0.02900
Br277      Br  0.06707044  0.27160384  0.16238360    -0.02590
H278        H  0.00893861  0.17873210  0.20547760     0.09570
H279        H  0.49847584  0.16262436  0.01335075     0.07590
Br280      Br  0.48438192  0.08150237  0.05018908    -0.03020
C281        C  0.34150261  0.29913472  0.43564896    -0.09650
C282        C  0.34402359  0.29615507  0.49100630     0.06540
C283        C  0.38639759  0.31377368  0.51285004    -0.03420
C284        C  0.42446236  0.34284298  0.48291191    -0.07870
C285        C  0.42280127  0.34769150  0.42801953     0.05660
C286        C  0.38080851  0.32314935  0.40373978    -0.02900
Br287      Br  0.37479171  0.31854903  0.32847585    -0.02590
H288        H  0.30935124  0.28538415  0.41756018     0.09570
H289        H  0.45642297  0.35894620  0.50211155     0.07590
Br290      Br  0.39453562  0.30027810  0.58390411    -0.03020
C291        C  0.03401703  0.37187441  0.44103600    -0.09650
C292        C  0.49262915  0.34680255  0.41622966     0.06540
C293        C  0.47050180  0.29969250  0.42118731    -0.03420
C294        C  0.48434943  0.28016922  0.45822971    -0.07870
C295        C  0.02556296  0.30552085  0.48328251     0.05660
C296        C  0.05247176  0.35145526  0.46853417    -0.02900
Br297      Br  0.11385449  0.38985655  0.48753593    -0.02590
H298        H  0.05185723  0.40774112  0.44192544     0.09570
H299        H  0.46153215  0.24531761  0.46811936     0.07590
Br300      Br  0.41965481  0.25969533  0.38091315    -0.03020
C301        C  0.38681293  0.35741086  0.13282020    -0.09650
C302        C  0.39748696  0.32811097  0.15624968     0.06540
C303        C  0.36807322  0.28198792  0.14628760    -0.03420
C304        C  0.33716723  0.26807871  0.10554666    -0.07870
C305        C  0.32806294  0.29802853  0.08137268     0.05660
C306        C  0.34986367  0.34172791  0.10057069    -0.02900
Br307      Br  0.32859944  0.38025625  0.08507229    -0.02590
H308        H  0.40734408  0.39290739  0.13766065     0.09570
H309        H  0.31912081  0.23352898  0.09431635     0.07590
Br310      Br  0.36114554  0.23583193  0.19295448    -0.03020
C311        C  0.02102931  0.34735879  0.07803353    -0.09650
C312        C  0.01185417  0.30300837  0.08108006     0.06540
C313        C  0.48177749  0.27604492  0.12304433    -0.03420
C314        C  0.46862897  0.29436365  0.16289629    -0.07870
C315        C  0.47310382  0.33537057  0.15471614     0.05660
C316        C  0.99972256  0.36207566  0.11160829    -0.02900
Br317      Br  0.00390004  0.41706952  0.09448623    -0.02590
H318        H  0.04215152  0.37061870  0.04696835     0.09570
H319        H  0.44923669  0.27388612  0.19679845     0.07590
Br320      Br  0.44201306  0.21410799  0.11966853    -0.03020
C321        C  0.20188599  0.16881627  0.05688470    -0.09650
C322        C  0.23349798  0.21198222  0.07498466     0.06540
C323        C  0.23517928  0.21695155  0.13085119    -0.03420
C324        C  0.21792608  0.17877459  0.16399814    -0.07870
C325        C  0.18976348  0.13630146  0.14345641     0.05660
C326        C  0.17582062  0.13306972  0.09135026    -0.02900
Br327      Br  0.13217477  0.07727372  0.06132596    -0.02590
H328        H  0.19705215  0.16207028  0.01516305     0.09570
H329        H  0.22546171  0.18214040  0.20557734     0.07590
Br330      Br  0.25120603  0.27132029  0.16489015    -0.03020
C331        C  0.24481521  0.03435863  0.12560154    -0.09650
C332        C  0.25603704  0.05041774  0.07254266     0.06540
C333        C  0.25443751  0.08764351  0.05793607    -0.03420
C334        C  0.24196067  0.10719018  0.09517305    -0.07870
C335        C  0.21828255  0.08431360  0.14223151     0.05660
C336        C  0.22714496  0.05226124  0.16114010    -0.02900
Br337      Br  0.23259889  0.04570626  0.23545373    -0.02590
H338        H  0.24966923  0.00827243  0.13916935     0.09570
H339        H  0.24952859  0.13983602  0.08483113     0.07590
Br340      Br  0.27097206  0.11542020  0.98831527    -0.03020
C341        C  0.18833720  0.16104105  0.43169054    -0.09650
C342        C  0.21311857  0.14190051  0.41645209     0.06540
C343        C  0.25907099  0.16558386  0.42847823    -0.03420
C344        C  0.27591436  0.19971559  0.46502879    -0.07870
C345        C  0.25021032  0.21699818  0.48263701     0.05660
C346        C  0.20809202  0.20033941  0.46038945    -0.02900
Br347      Br  0.17734853  0.23132500  0.46686471    -0.02590
H348        H  0.15287286  0.14453012  0.42580245     0.09570
H349        H  0.30877535  0.21181439  0.48029046     0.07590
Br350      Br  0.29903901  0.14959214  0.39955226    -0.03020
C351        C  0.21393588  0.03661000  0.42115623    -0.09650
C352        C  0.20086998  0.06606183  0.43710057     0.06540
C353        C  0.20581191  0.07735440  0.49044924    -0.03420
C354        C  0.23668423  0.07397254  0.51923431    -0.07870
C355        C  0.24389169  0.03962415  0.50927298     0.05660
C356        C  0.23003862  0.01913426  0.45896440    -0.02900
Br357      Br  0.22799976  0.46622191  0.43973171    -0.02590
H358        H  0.21104050  0.02645562  0.38064126     0.09570
H359        H  0.24991375  0.09399313  0.55354177     0.07590
Br360      Br  0.16566832  0.08992387  0.52708609    -0.03020
C361        C  0.16105253  0.57610754  0.36160911     0.00070
C362        C  0.19117747  0.59351030  0.40079123     0.00070
C363        C  0.18587184  0.59583626  0.16722685     0.00070
C364        C  0.14482936  0.56606559  0.19065850     0.00070
O365        O  0.08039864  0.49397916  0.20068890    -0.74920
O366        O  0.05586323  0.97575957  0.35036693    -0.74950
O367        O  0.12674138  0.53646407  0.28982986    -0.75010
O368        O  0.01528707  0.93671895  0.26558801    -0.75060
O369        O  0.04683783  0.90557279  0.23024525    -0.74990
O370        O  0.14124571  0.99524071  0.33373978    -0.74970
O371        O  0.05478802  0.91474460  0.33767251    -0.74940
O372        O  0.13804684  0.99292101  0.21936251    -0.75010
Ni373      Ni  0.06833793  0.98821126  0.27639740     1.25410
Ni374      Ni  0.09868105  0.94889291  0.27938912     1.25360
C375        C  0.12207738  0.51383852  0.19503919     0.87260
C376        C  0.03667518  0.93446853  0.35965556     0.87190
C377        C  0.14607552  0.53403215  0.32799607     0.87220
C378        C  0.01018375  0.90624710  0.23736724     0.87390
C379        C  0.46060574  0.88105188  0.21613537     0.00070
C380        C  0.44236634  0.84598597  0.18247547     0.00070
C381        C  0.48701329  0.91018273  0.37565679     0.00070
C382        C  0.46690997  0.86840760  0.39954469     0.00070
C383        C  0.46257021  0.56934236  0.20806159     0.00070
C384        C  0.45286203  0.58962959  0.16899212     0.00070
C385        C  0.44705906  0.59099982  0.40253314     0.00070
C386        C  0.46698894  0.57280383  0.37426576     0.00070
O387        O  0.01795488  0.55834078  0.24289577    -0.74920
O388        O  0.08915580  0.55859803  0.34993065    -0.74950
O389        O  0.02594321  0.56288150  0.36226521    -0.75010
O390        O  0.08103213  0.55231071  0.24073407    -0.75060
O391        O  0.12698293  0.62366933  0.22761921    -0.74990
O392        O  0.04899544  0.63135087  0.34253169    -0.74970
O393        O  0.13636171  0.62977817  0.33245401    -0.74940
O394        O  0.04404655  0.62836175  0.23771098    -0.75010
Ni395      Ni  0.05162571  0.55631441  0.29903387     1.25410
Ni396      Ni  0.09177298  0.63266500  0.28540444     1.25360
C397        C  0.01157617  0.58835097  0.22856382     0.87260
C398        C  0.12837097  0.59172932  0.35132251     0.87190
C399        C  0.01860917  0.59351816  0.36509484     0.87220
C400        C  0.11637877  0.58316617  0.21834842     0.87390
O401        O  0.46618991  0.53001787  0.30761041    -0.74920
O402        O  0.47055571  0.95013073  0.21875063    -0.74950
O403        O  0.45357311  0.50177966  0.20272159    -0.75010
O404        O  0.48800562  0.96983420  0.32665039    -0.75060
O405        O  0.41983017  0.91581987  0.34930961    -0.74990
O406        O  0.39763110  0.99144384  0.24838046    -0.74970
O407        O  0.40242812  0.90180040  0.24772820    -0.74940
O408        O  0.40653968  0.98955383  0.35344007    -0.75010
Ni409      Ni  0.47203804  0.98965058  0.26486058     1.25410
Ni410      Ni  0.40062318  0.94594488  0.29882754     1.25360
C411        C  0.44212554  0.52801615  0.34483605     0.87260
C412        C  0.44033567  0.91034968  0.22545580     0.87190
C413        C  0.43162897  0.51750374  0.21576108     0.87220
C414        C  0.46260699  0.93284272  0.35204625     0.87390
C415        C  0.08894844  0.64794190  0.86000790     0.00070
C416        C  0.10763861  0.68439228  0.89212846     0.00070
C417        C  0.11152417  0.93908452  0.89774033     0.00070
C418        C  0.08587552  0.95326111  0.87542925     0.00070
C419        C  0.42221202  0.96990140  0.87384713     0.00070
C420        C  0.38084915  0.94614843  0.90071034     0.00070
C421        C  0.08579138  0.94638117  0.71166621     0.00070
C422        C  0.11034871  0.93425653  0.68129279     0.00070
O423        O  0.14428063  0.52865888  0.74297570    -0.74920
O424        O  0.14398081  0.62228952  0.83667543    -0.74950
O425        O  0.14393825  0.53488559  0.84705593    -0.75010
O426        O  0.14187225  0.61320531  0.73046653    -0.75060
O427        O  0.07028720  0.56676534  0.74063056    -0.74990
O428        O  0.07316777  0.50975010  0.86176980    -0.74970
O429        O  0.07226613  0.57528914  0.85228428    -0.74940
O430        O  0.07382869  0.50295963  0.74413345    -0.75010
Ni431      Ni  0.14787809  0.57739466  0.78968183     1.25410
Ni432      Ni  0.07076680  0.53735128  0.79981493     1.25360
C433        C  0.10437389  0.49602738  0.73220574     0.87260
C434        C  0.10533635  0.61464808  0.85472522     0.87190
C435        C  0.10466399  0.50372745  0.86629981     0.87220
C436        C  0.10141713  0.60171109  0.71854941     0.87390
C437        C  0.08229775  0.62634995  0.68737487     0.00070
C438        C  0.10708889  0.66680284  0.66113797     0.00070
C439        C  0.36960796  0.93577591  0.66784915     0.00070
C440        C  0.39981431  0.94912771  0.70684272     0.00070
O441        O  0.44821754  0.49798946  0.76645671    -0.74920
O442        O  0.05056270  0.60881907  0.78926909    -0.74950
O443        O  0.48765469  0.53994047  0.85150066    -0.75010
O444        O  0.00962103  0.56096215  0.70156850    -0.75060
O445        O  0.50834786  0.61929087  0.71662383    -0.74990
O446        O  0.42648231  0.53807413  0.83619320    -0.74970
O447        O  0.50845181  0.62561549  0.82847057    -0.74940
O448        O  0.42092763  0.53128250  0.72700345    -0.75010
Ni449      Ni  0.50144721  0.55049542  0.77722957     1.25410
Ni450      Ni  0.46266095  0.58174711  0.77642316     1.25360
C451        C  0.42078182  0.49479816  0.73458456     0.87260
C452        C  0.04775579  0.63081262  0.82428152     0.87190
C453        C  0.44579330  0.52023833  0.85980284     0.87220
C454        C  0.02940538  0.60223355  0.69401451     0.87390
O455        O  0.50099499  0.89308789  0.85398534    -0.74920
O456        O  0.41972872  0.89084503  0.73835593    -0.74950
O457        O  0.50627369  0.88269337  0.74601867    -0.75010
O458        O  0.42745730  0.90518991  0.84149873    -0.75060
O459        O  0.48450526  0.97325656  0.82468826    -0.74990
O460        O  0.01891539  0.93860725  0.70021300    -0.74970
O461        O  0.46942671  0.96006916  0.71534043    -0.74940
O462        O  0.04488979  0.94941002  0.80621067    -0.75010
Ni463      Ni  0.46004252  0.88708845  0.79408333     1.25410
Ni464      Ni  0.50616391  0.95776488  0.76272665     1.25360
C465        C  0.04099114  0.92687975  0.84533207     0.87260
C466        C  0.42934773  0.92895708  0.71641661     0.87190
C467        C  0.03354963  0.91598399  0.71377029     0.87220
C468        C  0.44585643  0.94745176  0.84768529     0.87390
C469        C  0.29942907  0.78648820  0.03356446     0.00070
C470        C  0.25597790  0.74914661  0.03262640     0.00070
C471        C  0.03203701  0.78821334  0.03715929     0.00070
C472        C  0.03621892  0.75118637  0.03395092     0.00070
C473        C  0.30363633  0.52565171  0.03114355     0.00070
C474        C  0.26541375  0.52727872  0.02998758     0.00070
C475        C  0.29647895  0.51839068  0.54405655     0.00070
C476        C  0.26152535  0.52475962  0.55441181     0.00070
C477        C  0.03737643  0.78762389  0.53103162     0.00070
C478        C  0.02904590  0.74473138  0.53447602     0.00070
C479        C  0.26458678  0.74911025  0.52733083     0.00070
C480        C  0.30624812  0.78730999  0.52768042     0.00070
C481        C  0.36308089  0.90382116  0.58039731    -0.09650
C482        C  0.35723830  0.89634222  0.63518358     0.06540
C483        C  0.33230584  0.85202418  0.65497648    -0.03420
C484        C  0.31494026  0.81658038  0.62018651    -0.07870
C485        C  0.31883358  0.82429298  0.56517158     0.05660
C486        C  0.34300682  0.86895899  0.54573271    -0.02900
Br487      Br  0.35162585  0.88613351  0.47210720    -0.02590
H488        H  0.38163094  0.93751938  0.56411329     0.09570
H489        H  0.29897771  0.78299523  0.63639328     0.07590
Br490      Br  0.31770844  0.83708711  0.72798560    -0.03020
C491        C  0.35963222  0.52455031  0.59471712    -0.09650
C492        C  0.31353651  0.00054957  0.58496791     0.06540
C493        C  0.28729907  0.95627929  0.60463997    -0.03420
C494        C  0.30513242  0.93953770  0.63964440    -0.07870
C495        C  0.35145884  0.96284138  0.64810076     0.05660
C496        C  0.37907250  0.00474639  0.62179346    -0.02900
Br497      Br  0.44214947  0.53068363  0.60791201    -0.02590
H498        H  0.38131572  0.55671634  0.57535917     0.09570
H499        H  0.28364032  0.90570294  0.65507136     0.07590
Br500      Br  0.22771426  0.91674537  0.58220180    -0.03020
C501        C  0.17796158  0.66929372  0.62949528    -0.09650
C502        C  0.15690784  0.69161633  0.64655170     0.06540
C503        C  0.18046069  0.73820812  0.63522250    -0.03420
C504        C  0.21441128  0.75756532  0.59524588    -0.07870
C505        C  0.23200918  0.73337807  0.57423479     0.05660
C506        C  0.21777657  0.69195032  0.59820725    -0.02900
Br507      Br  0.25689336  0.67036719  0.59418248    -0.02590
H508        H  0.16321281  0.63425348  0.63789676     0.09570
H509        H  0.22767458  0.79154302  0.58187314     0.07590
Br510      Br  0.16972268  0.77681939  0.67641116    -0.03020
C511        C  0.07131037  0.70810648  0.54812007    -0.09650
C512        C  0.05061606  0.72879964  0.57228119     0.06540
C513        C  0.04525124  0.72556431  0.62836444    -0.03420
C514        C  0.06353897  0.70531075  0.65765250    -0.07870
C515        C  0.08263262  0.68388745  0.63206192     0.05660
C516        C  0.08284249  0.68257749  0.57695865    -0.02900
Br517      Br  0.09345435  0.64192342  0.53981482    -0.02590
H518        H  0.07518809  0.70854141  0.50551411     0.09570
H519        H  0.06239397  0.70577923  0.70044652     0.07590
Br520      Br  0.01092796  0.74408528  0.66755665    -0.03020
C521        C  0.16607319  0.50321179  0.63307587    -0.09650
C522        C  0.15763085  0.96797730  0.66660946     0.06540
C523        C  0.19473252  0.96573667  0.68218823    -0.03420
C524        C  0.23617545  0.99204537  0.65363877    -0.07870
C525        C  0.23897985  0.01913083  0.61029922     0.05660
C526        C  0.21026162  0.53458059  0.61899584    -0.02900
Br527      Br  0.23429350  0.58310570  0.66659902    -0.02590
H528        H  0.14027378  0.51029473  0.62613020     0.09570
H529        H  0.26486556  0.99222157  0.66716255     0.07590
Br530      Br  0.19077405  0.92999860  0.74191124    -0.03020
C531        C  0.03125114  0.84136754  0.58783309    -0.09650
C532        C  0.05368897  0.81910709  0.57703028     0.06540
C533        C  0.09490060  0.83493674  0.60163668    -0.03420
C534        C  0.10987459  0.86861561  0.63951913    -0.07870
C535        C  0.08869112  0.89270057  0.64763437     0.05660
C536        C  0.05179424  0.88107541  0.61547655    -0.02900
Br537      Br  0.03858170  0.92397622  0.59011305    -0.02590
H538        H  0.00132006  0.83243323  0.56665649     0.09570
H539        H  0.14069490  0.87854799  0.65859809     0.07590
Br540      Br  0.13622194  0.81929780  0.57635920    -0.03020
C541        C  0.29582900  0.83425708  0.95967699    -0.09650
C542        C  0.32096009  0.82153651  0.98872046     0.06540
C543        C  0.36841668  0.84700145  0.97829477    -0.03420
C544        C  0.38845429  0.88780970  0.94981337    -0.07870
C545        C  0.36215275  0.89898819  0.92080320     0.05660
C546        C  0.31620066  0.86673278  0.91958702    -0.02900
Br547      Br  0.29077483  0.84565217  0.85259799    -0.02590
H548        H  0.26011500  0.81819730  0.96492160     0.09570
H549        H  0.42454153  0.91030707  0.94983790     0.07590
Br550      Br  0.40798815  0.82839497  0.00003962    -0.03020
C551        C  0.38570440  0.00891118  0.95219700    -0.09650
C552        C  0.35895365  0.96957699  0.92487012     0.06540
C553        C  0.31190647  0.95252924  0.92591096    -0.03420
C554        C  0.29301044  0.96796651  0.96285588    -0.07870
C555        C  0.32048675  0.00830576  0.98804121     0.05660
C556        C  0.36707158  0.53060284  0.97659738    -0.02900
Br557      Br  0.40620362  0.59257977  0.98599052    -0.02590
H558        H  0.42166036  0.52440002  0.95302539     0.09570
H559        H  0.25690802  0.95091395  0.96757747     0.07590
Br560      Br  0.27544817  0.92560703  0.86643976    -0.03020
C561        C  0.12122746  0.88619075  0.95409881    -0.09650
C562        C  0.09593877  0.89143994  0.91531086     0.06540
C563        C  0.05331442  0.85342049  0.90646250    -0.03420
C564        C  0.03187535  0.81995393  0.94643739    -0.07870
C565        C  0.05457862  0.82189753  0.99244681     0.05660
C566        C  0.10019355  0.85503223  0.99517327    -0.02900
Br567      Br  0.13419402  0.86249366  0.05688935    -0.02590
H568        H  0.15671673  0.91005843  0.95754693     0.09570
H569        H  0.99835540  0.79181824  0.94068912     0.07590
Br570      Br  0.03604812  0.83501305  0.83542958    -0.03020
C571        C  0.19645264  0.99098088  0.90137468    -0.09650
C572        C  0.15326463  0.97397873  0.92401289     0.06540
C573        C  0.14932597  0.97950311  0.97800048    -0.03420
C574        C  0.18499044  0.99120729  0.01017213    -0.07870
C575        C  0.22885818  0.00770511  0.98941623     0.05660
C576        C  0.23464751  0.01128088  0.93317948    -0.02900
Br577      Br  0.29170054  0.04757367  0.89666396    -0.02590
H578        H  0.20041230  0.98885554  0.85913096     0.09570
H579        H  0.17805035  0.98866265  0.05239446     0.07590
Br580      Br  0.09358532  0.96466279  0.01046217    -0.03020
C581        C  0.19004577  0.70915606  0.90414386    -0.09650
C582        C  0.14704604  0.69525895  0.92566853     0.06540
C583        C  0.14395691  0.70216153  0.97970660    -0.03420
C584        C  0.18174710  0.73070793  0.00741131    -0.07870
C585        C  0.22394174  0.74060876  0.98915469     0.05660
C586        C  0.22777424  0.72832194  0.93685804    -0.02900
Br587      Br  0.28174793  0.73376285  0.90994913    -0.02590
H588        H  0.19427545  0.70475884  0.86262903     0.09570
H589        H  0.17716953  0.73751492  0.04801064     0.07590
Br590      Br  0.08943276  0.66938230  0.01946348    -0.03020
C591        C  0.10060802  0.76800101  0.96917876    -0.09650
C592        C  0.05444503  0.74546232  0.98147289     0.06540
C593        C  0.02585722  0.71640459  0.94314571    -0.03420
C594        C  0.04145528  0.69471535  0.91179812    -0.07870
C595        C  0.08798387  0.71305238  0.90362947     0.05660
C596        C  0.11610021  0.75607267  0.92470270    -0.02900
Br597      Br  0.17661878  0.79633213  0.89965500    -0.02590
H598        H  0.12458062  0.79420972  0.99364937     0.09330
H599        H  0.01673088  0.66160036  0.90204231     0.07590
Br600      Br  0.96422030  0.69876853  0.94109297    -0.03020
C601        C  0.01721948  0.71386723  0.44172396    -0.09650
C602        C  0.00272369  0.70919933  0.49520631     0.06540
C603        C  0.47162548  0.66604146  0.51561835    -0.03420
C604        C  0.46217778  0.62911749  0.48702390    -0.07870
C605        C  0.47396563  0.63287669  0.43296996     0.05660
C606        C  0.00036312  0.67626017  0.40961234    -0.02900
Br607      Br  0.00884513  0.68668407  0.33446447    -0.02590
H608        H  0.04113171  0.74661478  0.42486944     0.09570
H609        H  0.44087078  0.59654948  0.50580036     0.07590
Br610      Br  0.44120520  0.65535301  0.58315160    -0.03020
C611        C  0.34117495  0.57350904  0.46690597    -0.09650
C612        C  0.32319059  0.53141749  0.49170819     0.06540
C613        C  0.33777525  0.50426526  0.47132978    -0.03420
C614        C  0.37709856  0.52259130  0.44026535    -0.07870
C615        C  0.39736957  0.56552140  0.41767369     0.05660
C616        C  0.37519068  0.58869307  0.42694961    -0.02900
Br617      Br  0.39441078  0.64408090  0.39113144    -0.02590
H618        H  0.33035631  0.59540748  0.47966376     0.09570
H619        H  0.39335024  0.50415790  0.43852479     0.07590
Br620      Br  0.30398919  0.94156643  0.48264603    -0.03020
C621        C  0.38882035  0.59330731  0.13711360    -0.09650
C622        C  0.40651420  0.56654801  0.14548338     0.06540
C623        C  0.38332034  0.52345537  0.12250344    -0.03420
C624        C  0.34301816  0.50842741  0.09743071    -0.07870
C625        C  0.33162531  0.53853728  0.07989356     0.05660
C626        C  0.35557109  0.58196817  0.10021433    -0.02900
Br627      Br  0.35543794  0.63084010  0.06852619    -0.02590
H628        H  0.40580508  0.62624986  0.15319324     0.09570
H629        H  0.32562427  0.47521193  0.08153023     0.07590
Br630      Br  0.40756591  0.48753197  0.10528770    -0.03020
C631        C  0.00865225  0.67593860  0.16293265    -0.09650
C632        C  0.48753949  0.63311115  0.14060534     0.06540
C633        C  0.49091919  0.63202522  0.08565711    -0.03420
C634        C  0.50255832  0.66916705  0.05442606    -0.07870
C635        C  0.02162592  0.71242966  0.07437392     0.05660
C636        C  0.02930697  0.71552463  0.12989883    -0.02900
Br637      Br  0.06708823  0.77162761  0.16238587    -0.02590
H638        H  0.00894797  0.67875810  0.20548512     0.09570
H639        H  0.49849937  0.66264051  0.01335886     0.07590
Br640      Br  0.48439657  0.58151835  0.05020926    -0.03020
C641        C  0.34152321  0.79910455  0.43569143    -0.09650
C642        C  0.34404641  0.79613065  0.49104954     0.06540
C643        C  0.38642612  0.81378247  0.51289246    -0.03420
C644        C  0.42448507  0.84286267  0.48294939    -0.07870
C645        C  0.42281900  0.84770175  0.42805630     0.05660
C646        C  0.38082591  0.82314207  0.40378074    -0.02900
Br647      Br  0.37480515  0.81854725  0.32851692    -0.02590
H648        H  0.30937010  0.78533736  0.41760208     0.09570
H649        H  0.45644805  0.85898002  0.50214489     0.07590
Br650      Br  0.39458013  0.80030766  0.58394917    -0.03020
C651        C  0.03404071  0.87187637  0.44104797    -0.09650
C652        C  0.49264470  0.84680778  0.41625635     0.06540
C653        C  0.47051469  0.79969673  0.42121461    -0.03420
C654        C  0.48436892  0.78017131  0.45824533    -0.07870
C655        C  0.02558947  0.80551965  0.48328334     0.05660
C656        C  0.05249930  0.85145282  0.46853122    -0.02900
Br657      Br  0.11388811  0.88984319  0.48751598    -0.02590
H658        H  0.05188586  0.90774338  0.44193563     0.09570
H659        H  0.46155151  0.74532027  0.46813803     0.07590
Br660      Br  0.41966150  0.75969699  0.38095092    -0.03020
C661        C  0.38683141  0.85741321  0.13283425    -0.09650
C662        C  0.39750316  0.82811072  0.15626156     0.06540
C663        C  0.36808682  0.78198811  0.14629776    -0.03420
C664        C  0.33718019  0.76808188  0.10555735    -0.07870
C665        C  0.32807780  0.79803439  0.08138710     0.05660
C666        C  0.34988054  0.84173234  0.10058767    -0.02900
Br667      Br  0.32860685  0.88025485  0.08510585    -0.02590
H668        H  0.40736365  0.89290942  0.13767737     0.09570
H669        H  0.31912998  0.73353216  0.09432665     0.07590
Br670      Br  0.36115234  0.73582931  0.19296525    -0.03020
C671        C  0.02106741  0.84738066  0.07806235    -0.09650
C672        C  0.01187949  0.80302547  0.08108809     0.06540
C673        C  0.48179070  0.77605162  0.12303661    -0.03420
C674        C  0.46863862  0.79436076  0.16289570    -0.07870
C675        C  0.47312226  0.83537318  0.15473292     0.05660
C676        C  0.99975651  0.86209179  0.11164027    -0.02900
Br677      Br  0.00395036  0.91709706  0.09454244    -0.02590
H678        H  0.04220277  0.87064833  0.04701015     0.09570
H679        H  0.44923824  0.77387359  0.19678786     0.07590
Br680      Br  0.44202017  0.71411966  0.11962300    -0.03020
C681        C  0.20187947  0.66883296  0.05690883    -0.09650
C682        C  0.23350264  0.71199690  0.07500543     0.06540
C683        C  0.23519337  0.71696627  0.13087204    -0.03420
C684        C  0.21793868  0.67878842  0.16401751    -0.07870
C685        C  0.18976640  0.63631689  0.14347715     0.05660
C686        C  0.17581401  0.63308802  0.09137612    -0.02900
Br687      Br  0.13215660  0.57729470  0.06135462    -0.02590
H688        H  0.19703897  0.66208561  0.01518817     0.09570
H689        H  0.22548065  0.68215246  0.20559479     0.07590
Br690      Br  0.25123147  0.77133598  0.16491619    -0.03020
C691        C  0.24481664  0.53437167  0.12562560    -0.09650
C692        C  0.25603233  0.55042134  0.07256302     0.06540
C693        C  0.25442365  0.58763953  0.05794437    -0.03420
C694        C  0.24194319  0.60718818  0.09517312    -0.07870
C695        C  0.21827681  0.58432228  0.14224086     0.05660
C696        C  0.22714581  0.55227703  0.16115826    -0.02900
Br697      Br  0.23259080  0.54572381  0.23547472    -0.02590
H698        H  0.24967503  0.50829004  0.13920048     0.09570
H699        H  0.24950527  0.63982955  0.08482000     0.07590
Br700      Br  0.27095583  0.61540744  0.98831883    -0.03020
C701        C  0.18834208  0.66101846  0.43171289    -0.09650
C702        C  0.21311546  0.64187050  0.41647186     0.06540
C703        C  0.25906776  0.66554502  0.42849795    -0.03420
C704        C  0.27591979  0.69967879  0.46504705    -0.07870
C705        C  0.25022128  0.71696549  0.48266094     0.05660
C706        C  0.20810363  0.70031502  0.46041495    -0.02900
Br707      Br  0.17736978  0.73130985  0.46689626    -0.02590
H708        H  0.15287847  0.64451441  0.42582388     0.09570
H709        H  0.30878214  0.71177599  0.48030390     0.07590
Br710      Br  0.29902421  0.64954234  0.39956503    -0.03020
C711        C  0.21390970  0.53656921  0.42116160    -0.09650
C712        C  0.20084295  0.56602000  0.43710820     0.06540
C713        C  0.20577356  0.57730091  0.49045989    -0.03420
C714        C  0.23664104  0.57391404  0.51924887    -0.07870
C715        C  0.24385759  0.53957221  0.50928204     0.05660
C716        C  0.23000821  0.51908825  0.45896939    -0.02900
Br717      Br  0.22803252  0.96626766  0.43973291    -0.02590
H718        H  0.21101954  0.52642064  0.38064451     0.09570
H719        H  0.24987565  0.59394095  0.55354940     0.07590
Br720      Br  0.16562867  0.58987221  0.52708986    -0.03020
C721        C  0.66106217  0.07612475  0.36160193     0.00070
C722        C  0.69118977  0.09353928  0.40078065     0.00070
C723        C  0.68587219  0.09582428  0.16721357     0.00070
C724        C  0.64483067  0.06605492  0.19065087     0.00070
O725        O  0.58040219  0.99396748  0.20069866    -0.74920
O726        O  0.55585104  0.47575074  0.35035336    -0.74950
O727        O  0.62674996  0.03646840  0.28982990    -0.75010
O728        O  0.51527921  0.43672372  0.26556537    -0.75060
O729        O  0.54682829  0.40557729  0.23021859    -0.74990
O730        O  0.64123238  0.49522750  0.33372844    -0.74970
O731        O  0.55477254  0.41473535  0.33764686    -0.74940
O732        O  0.63803994  0.49292531  0.21935094    -0.75010
Ni733      Ni  0.56833009  0.48821216  0.27638660     1.25410
Ni734      Ni  0.59866947  0.44888939  0.27936932     1.25360
C735        C  0.62208097  0.01382847  0.19504488     0.87260
C736        C  0.53666018  0.43445852  0.35963304     0.87190
C737        C  0.64608707  0.03404435  0.32799804     0.87220
C738        C  0.51017542  0.40625357  0.23734103     0.87390
C739        C  0.96059753  0.38106122  0.21610897     0.00070
C740        C  0.94235217  0.34598882  0.18245857     0.00070
C741        C  0.98699759  0.41017353  0.37562923     0.00070
C742        C  0.96689278  0.36839763  0.39951183     0.00070
C743        C  0.96256061  0.06931979  0.20805110     0.00070
C744        C  0.95285082  0.08960552  0.16898070     0.00070
C745        C  0.94706411  0.09100576  0.40252515     0.00070
C746        C  0.96699241  0.07280643  0.37426046     0.00070
O747        O  0.51794946  0.05832492  0.24288822    -0.74920
O748        O  0.58916299  0.05860623  0.34992195    -0.74950
O749        O  0.52594597  0.06288327  0.36225388    -0.75010
O750        O  0.58103397  0.05230293  0.24072754    -0.75060
O751        O  0.62697973  0.12366026  0.22759859    -0.74990
O752        O  0.54899522  0.13135059  0.34250950    -0.74970
O753        O  0.63636404  0.12978516  0.33243210    -0.74940
O754        O  0.54403849  0.12834522  0.23768848    -0.75010
Ni755      Ni  0.55162779  0.05631109  0.29902532     1.25410
Ni756      Ni  0.59177014  0.13266010  0.28538144     1.25360
C757        C  0.51156834  0.08833222  0.22854978     0.87260
C758        C  0.62837700  0.09174007  0.35130842     0.87190
C759        C  0.51861207  0.09352044  0.36508091     0.87220
C760        C  0.61637860  0.08315676  0.21833627     0.87390
O761        O  0.96618632  0.03001575  0.30760713    -0.74920
O762        O  0.97055184  0.45014245  0.21872875    -0.74950
O763        O  0.95356369  0.00175614  0.20272629    -0.75010
O764        O  0.98799745  0.46983077  0.32663399    -0.75060
O765        O  0.91981892  0.41581894  0.34928514    -0.74990
O766        O  0.89763568  0.49146178  0.24837160    -0.74970
O767        O  0.90242279  0.40181274  0.24770193    -0.74940
O768        O  0.90653347  0.48955634  0.35342694    -0.75010
Ni769      Ni  0.97203819  0.48965853  0.26485024     1.25410
Ni770      Ni  0.90061882  0.44595321  0.29880844     1.25360
C771        C  0.94212676  0.02801534  0.34483782     0.87260
C772        C  0.94033011  0.41036141  0.22542986     0.87190
C773        C  0.93161913  0.01748101  0.21576049     0.87220
C774        C  0.96259495  0.43283781  0.35202361     0.87390
C775        C  0.58893478  0.14793404  0.85999147     0.00070
C776        C  0.60762399  0.18438118  0.89211704     0.00070
C777        C  0.61152732  0.43908186  0.89776507     0.00070
C778        C  0.58588305  0.45326317  0.87545377     0.00070
C779        C  0.92221543  0.46991156  0.87387429     0.00070
C780        C  0.88084992  0.44615593  0.90073267     0.00070
C781        C  0.58579618  0.44638578  0.71168202     0.00070
C782        C  0.61034639  0.43425902  0.68129708     0.00070
O783        O  0.64426964  0.02865660  0.74295380    -0.74920
O784        O  0.64396897  0.12228547  0.83665424    -0.74950
O785        O  0.64392592  0.03488376  0.84703295    -0.75010
O786        O  0.64186664  0.11320829  0.73044406    -0.75060
O787        O  0.57028173  0.06676844  0.74060138    -0.74990
O788        O  0.57315239  0.00974205  0.86173674    -0.74970
O789        O  0.57225401  0.07528328  0.85225579    -0.74940
O790        O  0.57381641  0.00295454  0.74410343    -0.75010
Ni791      Ni  0.64786743  0.07739291  0.78965905     1.25410
Ni792      Ni  0.57075556  0.03734784  0.79978398     1.25360
C793        C  0.60436398  0.99602398  0.73218125     0.87260
C794        C  0.60532360  0.11464170  0.85470289     0.87190
C795        C  0.60465116  0.00372344  0.86627255     0.87220
C796        C  0.60141273  0.10171632  0.71852448     0.87390
C797        C  0.58229425  0.12635873  0.68735298     0.00070
C798        C  0.60708379  0.16681596  0.66112181     0.00070
C799        C  0.86963373  0.43579035  0.66785510     0.00070
C800        C  0.89982809  0.44914034  0.70685999     0.00070
O801        O  0.94822396  0.99798690  0.76642080    -0.74920
O802        O  0.55055677  0.10882206  0.78924325    -0.74950
O803        O  0.98765052  0.03993102  0.85146838    -0.75010
O804        O  0.50961817  0.06096687  0.70153720    -0.75060
O805        O  0.00833797  0.11928984  0.71660373    -0.74990
O806        O  0.92647548  0.03806220  0.83616812    -0.74970
O807        O  0.00843870  0.12560538  0.82845333    -0.74940
O808        O  0.92091889  0.03127308  0.72698387    -0.75010
Ni809      Ni  0.00144607  0.05049555  0.77719832     1.25410
Ni810      Ni  0.96265134  0.08173876  0.77640225     1.25360
C811        C  0.92077869  0.99479100  0.73456009     0.87260
C812        C  0.54774501  0.13080847  0.82426158     0.87190
C813        C  0.94578894  0.02022727  0.85977278     0.87220
C814        C  0.52940006  0.10223832  0.69398956     0.87390
O815        O  0.00100029  0.39309408  0.85401061    -0.74920
O816        O  0.91974133  0.39085973  0.73837717    -0.74950
O817        O  0.00627988  0.38270355  0.74604246    -0.75010
O818        O  0.92746436  0.40520157  0.84152318    -0.75060
O819        O  0.98451387  0.47326908  0.82472122    -0.74990
O820        O  0.51892285  0.43862066  0.70024325    -0.74970
O821        O  0.96944015  0.46008832  0.71537505    -0.74940
O822        O  0.54489623  0.44941832  0.80624079    -0.75010
Ni823      Ni  0.96005026  0.38709983  0.79410759     1.25410
Ni824      Ni  0.00617351  0.45777860  0.76275914     1.25360
C825        C  0.54099694  0.42688554  0.84535925     0.87260
C826        C  0.92936233  0.42897344  0.71644137     0.87190
C827        C  0.53355501  0.41599405  0.71379426     0.87220
C828        C  0.94586305  0.44746318  0.84771388     0.87390
C829        C  0.79941707  0.28647804  0.03354637     0.00070
C830        C  0.75596793  0.24913319  0.03260732     0.00070
C831        C  0.53201675  0.28819400  0.03715777     0.00070
C832        C  0.53619983  0.25116751  0.03395041     0.00070
C833        C  0.80363487  0.02564471  0.03111125     0.00070
C834        C  0.76541458  0.02727756  0.02995951     0.00070
C835        C  0.79649680  0.01843252  0.54407202     0.00070
C836        C  0.76154378  0.02480558  0.55441139     0.00070
C837        C  0.53734680  0.28762318  0.53103140     0.00070
C838        C  0.52902259  0.24473274  0.53447073     0.00070
C839        C  0.76457412  0.24915103  0.52729966     0.00070
C840        C  0.80623469  0.28735456  0.52763696     0.00070
C841        C  0.86315697  0.40386083  0.58040337    -0.09650
C842        C  0.85728171  0.39636502  0.63518432     0.06540
C843        C  0.83231761  0.35204263  0.65495733    -0.03420
C844        C  0.81493369  0.31660932  0.62015188    -0.07870
C845        C  0.81884492  0.32433829  0.56513884     0.05660
C846        C  0.84307126  0.36901356  0.54572070    -0.02900
Br847      Br  0.85176338  0.38623381  0.47210583    -0.02590
H848        H  0.88173836  0.43756471  0.56413713     0.09570
H849        H  0.79894906  0.28301926  0.63634791     0.07590
Br850      Br  0.81771370  0.33708761  0.72796138    -0.03020
C851        C  0.85963710  0.02456298  0.59473027    -0.09650
C852        C  0.81353325  0.50051894  0.58494550     0.06540
C853        C  0.78731056  0.45624711  0.60461204    -0.03420
C854        C  0.80514961  0.43952194  0.63962965    -0.07870
C855        C  0.85147406  0.46284400  0.64810098     0.05660
C856        C  0.87907870  0.50475166  0.62179507    -0.02900
Br857      Br  0.94213606  0.03064971  0.60788725    -0.02590
H858        H  0.88132955  0.05672555  0.57536893     0.09570
H859        H  0.78366556  0.40568637  0.65505760     0.07590
Br860      Br  0.72773002  0.41669777  0.58217666    -0.03020
C861        C  0.67797302  0.16933081  0.62948267    -0.09650
C862        C  0.65690503  0.19164138  0.64653447     0.06540
C863        C  0.68044643  0.23823273  0.63519960    -0.03420
C864        C  0.71439483  0.25759545  0.59521982    -0.07870
C865        C  0.73200189  0.23341664  0.57420921     0.05660
C866        C  0.71778646  0.19199593  0.59819031    -0.02900
Br867      Br  0.75692919  0.17044139  0.59417358    -0.02590
H868        H  0.66323716  0.13429376  0.63789132     0.09570
H869        H  0.72765113  0.29157150  0.58184523     0.07590
Br870      Br  0.66969770  0.27683820  0.67638536    -0.03020
C871        C  0.57129419  0.20811418  0.54811076    -0.09650
C872        C  0.55059501  0.22880185  0.57227436     0.06540
C873        C  0.54523052  0.22556417  0.62835748    -0.03420
C874        C  0.56352237  0.20531322  0.65764306    -0.07870
C875        C  0.58262149  0.18389598  0.63204961     0.05660
C876        C  0.58283099  0.18258783  0.57694649    -0.02900
Br877      Br  0.59345178  0.14194115  0.53979922    -0.02590
H878        H  0.57517363  0.20855215  0.50550487     0.09570
H879        H  0.56237741  0.20577996  0.70043718     0.07590
Br880      Br  0.51090311  0.24407903  0.66755207    -0.03020
C881        C  0.66603750  0.00318613  0.63301779    -0.09650
C882        C  0.65763614  0.46797106  0.66663011     0.06540
C883        C  0.69471889  0.46568945  0.68218615    -0.03420
C884        C  0.73616061  0.49197976  0.65363118    -0.07870
C885        C  0.73898591  0.51909435  0.61031387     0.05660
C886        C  0.71021766  0.03457900  0.61894103    -0.02900
Br887      Br  0.73418626  0.08311031  0.66653114    -0.02590
H888        H  0.64021778  0.01023683  0.62605279     0.09570
H889        H  0.76484019  0.49213531  0.66715121     0.07590
Br890      Br  0.69074273  0.42993312  0.74189942    -0.03020
C891        C  0.53122786  0.34136765  0.58784286    -0.09650
C892        C  0.55366258  0.31910557  0.57703057     0.06540
C893        C  0.59487867  0.33493589  0.60162348    -0.03420
C894        C  0.60986185  0.36861624  0.63950420    -0.07870
C895        C  0.58868109  0.39270268  0.64763442     0.05660
C896        C  0.55177587  0.38107555  0.61548909    -0.02900
Br897      Br  0.53855650  0.42397482  0.59013966    -0.02590
H898        H  0.50129467  0.33243433  0.56667144     0.09570
H899        H  0.64068668  0.37854652  0.65856818     0.07590
Br900      Br  0.63619553  0.31930067  0.57631819    -0.03020
C901        C  0.79582276  0.33424171  0.95964487    -0.09650
C902        C  0.82095088  0.32152489  0.98870130     0.06540
C903        C  0.86840930  0.34699565  0.97829101    -0.03420
C904        C  0.88844971  0.38781136  0.94982645    -0.07870
C905        C  0.86215245  0.39899237  0.92081191     0.05660
C906        C  0.81620348  0.36673087  0.91957003    -0.02900
Br907      Br  0.79079688  0.34567879  0.85256557    -0.02590
H908        H  0.76010677  0.31817334  0.96487027     0.09570
H909        H  0.92453605  0.41031205  0.94986565     0.07590
Br910      Br  0.90797863  0.32838614  0.00003426    -0.03020
C911        C  0.88570486  0.50891866  0.95222274    -0.09650
C912        C  0.85895262  0.46958109  0.92490086     0.06540
C913        C  0.81190293  0.45252565  0.92596010    -0.03420
C914        C  0.79301180  0.46796441  0.96290854    -0.07870
C915        C  0.82048879  0.50830959  0.98808007     0.05660
C916        C  0.86707034  0.03059673  0.97656649    -0.02900
Br917      Br  0.90620227  0.09257308  0.98595722    -0.02590
H918        H  0.92165940  0.02439013  0.95300475     0.09570
H919        H  0.75690973  0.45090814  0.96764169     0.07590
Br920      Br  0.77542237  0.42558963  0.86650954    -0.03020
C921        C  0.62122084  0.38618053  0.95412149    -0.09650
C922        C  0.59593816  0.39143546  0.91533035     0.06540
C923        C  0.55331604  0.35341742  0.90646947    -0.03420
C924        C  0.53187116  0.31994429  0.94643592    -0.07870
C925        C  0.55456723  0.32188032  0.99244893     0.05660
C926        C  0.60018107  0.35501478  0.99518759    -0.02900
Br927      Br  0.63417161  0.36246629  0.05690983    -0.02590
H928        H  0.65670925  0.41004748  0.95757842     0.09570
H929        H  0.49835161  0.29181099  0.94067950     0.07590
Br930      Br  0.53605853  0.33502417  0.83543087    -0.03020
C931        C  0.69645484  0.49097348  0.90140300    -0.09650
C932        C  0.65326700  0.47397211  0.92404069     0.06540
C933        C  0.64932724  0.47949427  0.97802879    -0.03420
C934        C  0.68499044  0.49119607  0.01020054    -0.07870
C935        C  0.72885863  0.50769829  0.98944477     0.05660
C936        C  0.73464907  0.51127362  0.93320817    -0.02900
Br937      Br  0.79170230  0.54756561  0.89669272    -0.02590
H938        H  0.70041489  0.48884848  0.85915926     0.09570
H939        H  0.67805021  0.48865029  0.05242303     0.07590
Br940      Br  0.59358909  0.46465905  0.01049193    -0.03020
C941        C  0.69003026  0.20914301  0.90412840    -0.09650
C942        C  0.64703067  0.19524343  0.92565568     0.06540
C943        C  0.64394169  0.20214028  0.97969569    -0.03420
C944        C  0.68173217  0.23068438  0.00740120    -0.07870
C945        C  0.72392797  0.24059175  0.98913945     0.05660
C946        C  0.72775959  0.22830801  0.93684079    -0.02900
Br947      Br  0.78173346  0.23375272  0.90992559    -0.02590
H948        H  0.69425957  0.20474990  0.86261214     0.09570
H949        H  0.67715504  0.23748836  0.04800205     0.07590
Br950      Br  0.58941637  0.16936406  0.01945158    -0.03020
C951        C  0.60059383  0.26798347  0.96918359    -0.09650
C952        C  0.55442985  0.24544536  0.98147346     0.06540
C953        C  0.52584418  0.21639360  0.94314070    -0.03420
C954        C  0.54144205  0.19470693  0.91178697    -0.07870
C955        C  0.58797123  0.21304238  0.90362362     0.05660
C956        C  0.61608799  0.25605922  0.92470511    -0.02900
Br957      Br  0.67660890  0.29631986  0.89966217    -0.02590
H958        H  0.62456480  0.29418871  0.99365772     0.09330
H959        H  0.51671990  0.16160107  0.90202079     0.07590
Br960      Br  0.46420931  0.19876406  0.94108166    -0.03020
C961        C  0.51720864  0.21387343  0.44171711    -0.09650
C962        C  0.50270618  0.20920251  0.49519726     0.06540
C963        C  0.97161239  0.16604280  0.51560709    -0.03420
C964        C  0.96217933  0.12912175  0.48701607    -0.07870
C965        C  0.97397005  0.13288273  0.43296245     0.05660
C966        C  0.50036255  0.17626719  0.40960556    -0.02900
Br967      Br  0.50885320  0.18669221  0.33445844    -0.02590
H968        H  0.54111858  0.24662246  0.42486457     0.09570
H969        H  0.94087717  0.09655307  0.50579284     0.07590
Br970      Br  0.94118361  0.15535008  0.58313533    -0.03020
C971        C  0.84119583  0.07353810  0.46690672    -0.09650
C972        C  0.82321429  0.03145330  0.49172641     0.06540
C973        C  0.83779254  0.00429364  0.47135565    -0.03420
C974        C  0.87710610  0.02260653  0.44027471    -0.07870
C975        C  0.89737488  0.06553066  0.41766677     0.05660
C976        C  0.87519999  0.08870691  0.42693796    -0.02900
Br977      Br  0.89441090  0.14408176  0.39109278    -0.02590
H978        H  0.83038218  0.09544228  0.47965660     0.09570
H979        H  0.89335363  0.00416914  0.43853358     0.07590
Br980      Br  0.80397149  0.44153275  0.48259007    -0.03020
C981        C  0.88881084  0.09328497  0.13710038    -0.09650
C982        C  0.90650320  0.06652457  0.14547136     0.06540
C983        C  0.88331494  0.02343661  0.12248150    -0.03420
C984        C  0.84301929  0.00841347  0.09739312    -0.07870
C985        C  0.83162564  0.03852491  0.07986149     0.05660
C986        C  0.85556998  0.08195299  0.10019141    -0.02900
Br987      Br  0.85545340  0.13083428  0.06850327    -0.02590
H988        H  0.90579382  0.12622551  0.15318532     0.09570
H989        H  0.82563039  0.97520134  0.08148353     0.07590
Br990      Br  0.90756814  0.98751812  0.10528028    -0.03020
C991        C  0.50864057  0.17591435  0.16292484    -0.09650
C992        C  0.98752709  0.13308821  0.14059443     0.06540
C993        C  0.99090268  0.13200526  0.08564515    -0.03420
C994        C  0.00253720  0.16914803  0.05441857    -0.07870
C995        C  0.52160497  0.21240901  0.07437040     0.05660
C996        C  0.52929191  0.21550172  0.12989376    -0.02900
Br997      Br  0.56707044  0.27160374  0.16238361    -0.02590
H998        H  0.50893855  0.17873201  0.20547762     0.09570
H999        H  0.99847582  0.16262445  0.01335073     0.07590
Br1000     Br  0.98438192  0.08150247  0.05018902    -0.03020
C1001       C  0.84150235  0.29913530  0.43564841    -0.09650
C1002       C  0.84402325  0.29615559  0.49100575     0.06540
C1003       C  0.88639715  0.31377368  0.51284955    -0.03420
C1004       C  0.92446205  0.34284272  0.48291149    -0.07870
C1005       C  0.92280108  0.34769137  0.42801911     0.05660
C1006       C  0.88080833  0.32314952  0.40373928    -0.02900
Br1007     Br  0.87479162  0.31854904  0.32847534    -0.02590
H1008       H  0.80935102  0.28538498  0.41755961     0.09570
H1009       H  0.95642261  0.35894569  0.50211121     0.07590
Br1010     Br  0.89453488  0.30027783  0.58390362    -0.03020
C1011       C  0.53401728  0.37187447  0.44103606    -0.09650
C1012       C  0.99262899  0.34680246  0.41622944     0.06540
C1013       C  0.97050168  0.29969242  0.42118705    -0.03420
C1014       C  0.98434926  0.28016914  0.45822952    -0.07870
C1015       C  0.52556321  0.30552091  0.48328253     0.05660
C1016       C  0.55247204  0.35145528  0.46853409    -0.02900
Br1017     Br  0.61385484  0.38985643  0.48753563    -0.02590
H1018       H  0.55185754  0.40774119  0.44192547     0.09570
H1019       H  0.96153200  0.24531751  0.46811910     0.07590
Br1020     Br  0.91965473  0.25969529  0.38091278    -0.03020
C1021       C  0.88681282  0.35741086  0.13282008    -0.09650
C1022       C  0.89748686  0.32811097  0.15624956     0.06540
C1023       C  0.86807312  0.28198792  0.14628749    -0.03420
C1024       C  0.83716711  0.26807870  0.10554656    -0.07870
C1025       C  0.82806283  0.29802852  0.08137258     0.05660
C1026       C  0.84986355  0.34172790  0.10057058    -0.02900
Br1027     Br  0.82859937  0.38025626  0.08507214    -0.02590
H1028       H  0.90734398  0.39290739  0.13766050     0.09570
H1029       H  0.81912071  0.23352898  0.09431626     0.07590
Br1030     Br  0.86114548  0.23583194  0.19295436    -0.03020
C1031       C  0.52102938  0.34735874  0.07803364    -0.09650
C1032       C  0.51185420  0.30300831  0.08108013     0.06540
C1033       C  0.98177747  0.27604498  0.12304426    -0.03420
C1034       C  0.96862891  0.29436370  0.16289618    -0.07870
C1035       C  0.97310372  0.33537060  0.15471599     0.05660
C1036       C  0.49972266  0.36207563  0.11160843    -0.02900
Br1037     Br  0.50390015  0.41706950  0.09448641    -0.02590
H1038       H  0.54215158  0.37061865  0.04696845     0.09570
H1039       H  0.94923664  0.27388618  0.19679835     0.07590
Br1040     Br  0.94201309  0.21410805  0.11966850    -0.03020
C1041       C  0.70188601  0.16881625  0.05688459    -0.09650
C1042       C  0.73349793  0.21198221  0.07498454     0.06540
C1043       C  0.73517916  0.21695158  0.13085106    -0.03420
C1044       C  0.71792595  0.17877465  0.16399807    -0.07870
C1045       C  0.68976341  0.13630150  0.14345636     0.05660
C1046       C  0.67582063  0.13306970  0.09135017    -0.02900
Br1047     Br  0.63217487  0.07727366  0.06132587    -0.02590
H1048       H  0.69705222  0.16207024  0.01516294     0.09570
H1049       H  0.72546153  0.18214050  0.20557728     0.07590
Br1050     Br  0.75120585  0.27132034  0.16488993    -0.03020
C1051       C  0.74481513  0.03435869  0.12560166    -0.09650
C1052       C  0.75603695  0.05041779  0.07254279     0.06540
C1053       C  0.75443747  0.08764361  0.05793621    -0.03420
C1054       C  0.74196075  0.10719033  0.09517323    -0.07870
C1055       C  0.71828258  0.08431373  0.14223166     0.05660
C1056       C  0.72714493  0.05226133  0.16114023    -0.02900
Br1057     Br  0.73259893  0.04570640  0.23545386    -0.02590
H1058       H  0.74966914  0.00827247  0.13916947     0.09570
H1059       H  0.74952874  0.13983620  0.08483136     0.07590
Br1060     Br  0.77097199  0.11542028  0.98831540    -0.03020
C1061       C  0.68833705  0.16104131  0.43169048    -0.09650
C1062       C  0.71311856  0.14190091  0.41645199     0.06540
C1063       C  0.75907100  0.16558444  0.42847804    -0.03420
C1064       C  0.77591430  0.19971623  0.46502852    -0.07870
C1065       C  0.75021016  0.21699871  0.48263673     0.05660
C1066       C  0.70809178  0.20033972  0.46038929    -0.02900
Br1067     Br  0.67734804  0.23132506  0.46686462    -0.02590
H1068       H  0.65287268  0.14453022  0.42580249     0.09570
H1069       H  0.80877532  0.21181511  0.48029017     0.07590
Br1070     Br  0.79903918  0.14959288  0.39955214    -0.03020
C1071       C  0.71393614  0.03661048  0.42115614    -0.09650
C1072       C  0.70087033  0.06606237  0.43710050     0.06540
C1073       C  0.70581243  0.07735506  0.49044915    -0.03420
C1074       C  0.73668476  0.07397314  0.51923414    -0.07870
C1075       C  0.74389201  0.03962462  0.50927283     0.05660
C1076       C  0.73003887  0.01913471  0.45896427    -0.02900
Br1077     Br  0.72799994  0.46622229  0.43973158    -0.02590
H1078       H  0.71104069  0.02645606  0.38064118     0.09570
H1079       H  0.74991427  0.09399366  0.55354167     0.07590
Br1080     Br  0.66566886  0.08992445  0.52708617    -0.03020
C1081       C  0.66105260  0.57610778  0.36160912     0.00070
C1082       C  0.69117757  0.59351066  0.40079121     0.00070
C1083       C  0.68587181  0.59583633  0.16722689     0.00070
C1084       C  0.64482933  0.56606564  0.19065853     0.00070
O1085       O  0.58039865  0.49397918  0.20068904    -0.74920
O1086       O  0.55586336  0.97575971  0.35036712    -0.74950
O1087       O  0.62674141  0.53646419  0.28982994    -0.75010
O1088       O  0.51528714  0.93671895  0.26558825    -0.75060
O1089       O  0.54683797  0.90557288  0.23024545    -0.74990
O1090       O  0.64124585  0.99524095  0.33373990    -0.74970
O1091       O  0.55478820  0.91474477  0.33767272    -0.74940
O1092       O  0.63804691  0.99292114  0.21936263    -0.75010
Ni1093     Ni  0.56833799  0.98821134  0.27639757     1.25410
Ni1094     Ni  0.59868119  0.94889307  0.27938929     1.25360
C1095       C  0.62207739  0.51383858  0.19503929     0.87260
C1096       C  0.53667535  0.93446868  0.35965579     0.87190
C1097       C  0.64607559  0.53403234  0.32799614     0.87220
C1098       C  0.51018386  0.90624712  0.23736745     0.87390
C1099       C  0.96060563  0.88105189  0.21613518     0.00070
C1100       C  0.94236622  0.84598597  0.18247531     0.00070
C1101       C  0.98701312  0.91018261  0.37565651     0.00070
C1102       C  0.96690977  0.86840746  0.39954435     0.00070
C1103       C  0.96257026  0.56934243  0.20806156     0.00070
C1104       C  0.95286208  0.58962967  0.16899211     0.00070
C1105       C  0.94705902  0.59099970  0.40253316     0.00070
C1106       C  0.96698892  0.57280374  0.37426577     0.00070
O1107       O  0.51795487  0.55834080  0.24289582    -0.74920
O1108       O  0.58915585  0.55859819  0.34993068    -0.74950
O1109       O  0.52594327  0.56288163  0.36226525    -0.75010
O1110       O  0.58103212  0.55231076  0.24073412    -0.75060
O1111       O  0.62698288  0.62366937  0.22761916    -0.74990
O1112       O  0.54899543  0.63135097  0.34253162    -0.74970
O1113       O  0.63636172  0.62977833  0.33245395    -0.74940
O1114       O  0.54404649  0.62836176  0.23771093    -0.75010
Ni1115     Ni  0.55162573  0.55631450  0.29903392     1.25410
Ni1116     Ni  0.59177295  0.63266507  0.28540437     1.25360
C1117       C  0.51157613  0.58835096  0.22856384     0.87260
C1118       C  0.62837101  0.59172951  0.35132249     0.87190
C1119       C  0.51860919  0.59351828  0.36509482     0.87220
C1120       C  0.61637874  0.58316622  0.21834843     0.87390
O1121       O  0.96618987  0.53001787  0.30761032    -0.74920
O1122       O  0.97055563  0.95013075  0.21875044    -0.74950
O1123       O  0.95357309  0.50177971  0.20272148    -0.75010
O1124       O  0.98800552  0.96983415  0.32665021    -0.75060
O1125       O  0.91983005  0.91581981  0.34930936    -0.74990
O1126       O  0.89763108  0.99144391  0.24838033    -0.74970
O1127       O  0.90242802  0.90180043  0.24772797    -0.74940
O1128       O  0.90653962  0.98955379  0.35343995    -0.75010
Ni1129     Ni  0.97203798  0.98965058  0.26486042     1.25410
Ni1130     Ni  0.90062310  0.94594488  0.29882735     1.25360
C1131       C  0.94212551  0.52801611  0.34483600     0.87260
C1132       C  0.94033558  0.91034970  0.22545560     0.87190
C1133       C  0.93162898  0.51750381  0.21576100     0.87220
C1134       C  0.96260687  0.93284264  0.35204601     0.87390
C1135       C  0.58894834  0.64794176  0.86000782     0.00070
C1136       C  0.60763851  0.68439217  0.89212836     0.00070
C1137       C  0.61152415  0.93908445  0.89774037     0.00070
C1138       C  0.58587549  0.95326101  0.87542927     0.00070
C1139       C  0.92221203  0.96990157  0.87384739     0.00070
C1140       C  0.88084913  0.94614857  0.90071054     0.00070
C1141       C  0.58579153  0.94638109  0.71166628     0.00070
C1142       C  0.61034892  0.93425650  0.68129290     0.00070
O1143       O  0.64428070  0.52865880  0.74297580    -0.74920
O1144       O  0.64398076  0.62228942  0.83667546    -0.74950
O1145       O  0.64393820  0.53488551  0.84705603    -0.75010
O1146       O  0.64187236  0.61320525  0.73046654    -0.75060
O1147       O  0.57028730  0.56676528  0.74063047    -0.74990
O1148       O  0.57316770  0.50974997  0.86176974    -0.74970
O1149       O  0.57226607  0.57528902  0.85228419    -0.74940
O1150       O  0.57382875  0.50295953  0.74413341    -0.75010
Ni1151     Ni  0.64787811  0.57739458  0.78968190     1.25410
Ni1152     Ni  0.57076681  0.53735118  0.79981485     1.25360
C1153       C  0.60437397  0.49602730  0.73220579     0.87260
C1154       C  0.60533628  0.61464797  0.85472517     0.87190
C1155       C  0.60466393  0.50372734  0.86629984     0.87220
C1156       C  0.60141725  0.60171105  0.71854937     0.87390
C1157       C  0.58229789  0.62634992  0.68737481     0.00070
C1158       C  0.60708904  0.66680289  0.66113807     0.00070
C1159       C  0.86960791  0.93577617  0.66784939     0.00070
C1160       C  0.89981419  0.94912790  0.70684302     0.00070
O1161       O  0.94821743  0.49798960  0.76645701    -0.74920
O1162       O  0.55056270  0.60881896  0.78926895    -0.74950
O1163       O  0.98765472  0.53994064  0.85150090    -0.75010
O1164       O  0.50962116  0.56096207  0.70156828    -0.75060
O1165       O  0.00834780  0.61929099  0.71662404    -0.74990
O1166       O  0.92648235  0.53807434  0.83619352    -0.74970
O1167       O  0.00845190  0.62561567  0.82847076    -0.74940
O1168       O  0.92092755  0.53128268  0.72700378    -0.75010
Ni1169     Ni  0.00144716  0.55049554  0.77722979     1.25410
Ni1170     Ni  0.96266095  0.58174729  0.77642344     1.25360
C1171       C  0.92078172  0.49479833  0.73458488     0.87260
C1172       C  0.54775572  0.63081249  0.82428139     0.87190
C1173       C  0.94579334  0.52023852  0.85980312     0.87220
C1174       C  0.52940550  0.60223348  0.69401434     0.87390
O1175       O  0.00099497  0.89308802  0.85398542    -0.74920
O1176       O  0.91972860  0.89084520  0.73835616    -0.74950
O1177       O  0.00627356  0.88269350  0.74601872    -0.75010
O1178       O  0.92745729  0.90519008  0.84149896    -0.75060
O1179       O  0.98450526  0.97325673  0.82468847    -0.74990
O1180       O  0.51891553  0.93860709  0.70021288    -0.74970
O1181       O  0.96942659  0.96006934  0.71534067    -0.74940
O1182       O  0.54488983  0.94940988  0.80621059    -0.75010
Ni1183     Ni  0.96004245  0.88708860  0.79408348     1.25410
Ni1184     Ni  0.00616383  0.95776504  0.76272681     1.25360
C1185       C  0.54099115  0.92687963  0.84533202     0.87260
C1186       C  0.92934761  0.92895725  0.71641686     0.87190
C1187       C  0.53354978  0.91598386  0.71377024     0.87220
C1188       C  0.94585644  0.94745193  0.84768553     0.87390
C1189       C  0.79942897  0.78648817  0.03356432     0.00070
C1190       C  0.75597782  0.74914658  0.03262626     0.00070
C1191       C  0.53203702  0.78821327  0.03715934     0.00070
C1192       C  0.53621889  0.75118628  0.03395092     0.00070
C1193       C  0.80363628  0.52565180  0.03114370     0.00070
C1194       C  0.76541369  0.52727878  0.02998771     0.00070
C1195       C  0.79647897  0.51839084  0.54405656     0.00070
C1196       C  0.76152546  0.52475993  0.55441172     0.00070
C1197       C  0.53737677  0.78762398  0.53103161     0.00070
C1198       C  0.52904616  0.74473146  0.53447605     0.00070
C1199       C  0.76458658  0.74911085  0.52733048     0.00070
C1200       C  0.80624786  0.78731073  0.52767984     0.00070
C1201       C  0.86308149  0.90382183  0.58039746    -0.09650
C1202       C  0.85723841  0.89634263  0.63518365     0.06540
C1203       C  0.83230566  0.85202453  0.65497625    -0.03420
C1204       C  0.81494002  0.81658090  0.62018605    -0.07870
C1205       C  0.81883361  0.82429372  0.56517114     0.05660
C1206       C  0.84300748  0.86895987  0.54573257    -0.02900
Br1207     Br  0.85162772  0.88613506  0.47210719    -0.02590
H1208       H  0.88163189  0.93752014  0.56411370     0.09570
H1209       H  0.79897729  0.78299570  0.63639267     0.07590
Br1210     Br  0.81770809  0.83708717  0.72798528    -0.03020
C1211       C  0.85963219  0.52455051  0.59471725    -0.09650
C1212       C  0.81353649  0.00054979  0.58496803     0.06540
C1213       C  0.78729900  0.95627955  0.60464025    -0.03420
C1214       C  0.80513236  0.93953797  0.63964469    -0.07870
C1215       C  0.85145879  0.96284164  0.64810103     0.05660
C1216       C  0.87907246  0.00474663  0.62179369    -0.02900
Br1217     Br  0.94214945  0.53068394  0.60791234    -0.02590
H1218       H  0.88131569  0.55671652  0.57535923     0.09570
H1219       H  0.78364026  0.90570323  0.65507170     0.07590
Br1220     Br  0.72771416  0.91674569  0.58220217    -0.03020
C1221       C  0.67796192  0.66929412  0.62949531    -0.09650
C1222       C  0.65690802  0.69161654  0.64655188     0.06540
C1223       C  0.68046070  0.73820833  0.63522273    -0.03420
C1224       C  0.71441111  0.75756564  0.59524591    -0.07870
C1225       C  0.73200911  0.73337855  0.57423460     0.05660
C1226       C  0.71777681  0.69195087  0.59820708    -0.02900
Br1227     Br  0.75689394  0.67036812  0.59418211    -0.02590
H1228       H  0.66321336  0.63425392  0.63789686     0.09570
H1229       H  0.72767425  0.79154333  0.58187322     0.07590
Br1230     Br  0.66972270  0.77681942  0.67641181    -0.03020
C1231       C  0.57131050  0.70810644  0.54812015    -0.09650
C1232       C  0.55061627  0.72879968  0.57228124     0.06540
C1233       C  0.54525144  0.72556438  0.62836449    -0.03420
C1234       C  0.56353913  0.70531079  0.65765258    -0.07870
C1235       C  0.58263275  0.68388746  0.63206203     0.05660
C1236       C  0.58284258  0.68257743  0.57695877    -0.02900
Br1237     Br  0.59345436  0.64192327  0.53981503    -0.02590
H1238       H  0.57518821  0.70854132  0.50551419     0.09570
H1239       H  0.56239412  0.70577928  0.70044660     0.07590
Br1240     Br  0.51092820  0.74408542  0.66755665    -0.03020
C1241       C  0.66607292  0.50321154  0.63307544    -0.09650
C1242       C  0.65763094  0.96797737  0.66660935     0.06540
C1243       C  0.69473282  0.96573719  0.68218827    -0.03420
C1244       C  0.73617572  0.99204608  0.65363880    -0.07870
C1245       C  0.73897985  0.01913119  0.61029902     0.05660
C1246       C  0.71026124  0.53458055  0.61899530    -0.02900
Br1247     Br  0.73429258  0.58310587  0.66659815    -0.02590
H1248       H  0.64027331  0.51029417  0.62612968     0.09570
H1249       H  0.76486598  0.99222253  0.66716259     0.07590
Br1250     Br  0.69077462  0.92999929  0.74191132    -0.03020
C1251       C  0.53125156  0.84136774  0.58783294    -0.09650
C1252       C  0.55368934  0.81910722  0.57703024     0.06540
C1253       C  0.59490090  0.83493679  0.60163679    -0.03420
C1254       C  0.60987483  0.86861560  0.63951931    -0.07870
C1255       C  0.58869139  0.89270059  0.64763444     0.05660
C1256       C  0.55179464  0.88107557  0.61547645    -0.02900
Br1257     Br  0.53858229  0.92397651  0.59011292    -0.02590
H1258       H  0.50132053  0.83243350  0.56665627     0.09570
H1259       H  0.64069507  0.87854795  0.65859843     0.07590
Br1260     Br  0.63622223  0.81929775  0.57635950    -0.03020
C1261       C  0.79582895  0.83425705  0.95967680    -0.09650
C1262       C  0.82096002  0.82153649  0.98872034     0.06540
C1263       C  0.86841663  0.84700148  0.97829477    -0.03420
C1264       C  0.88845424  0.88780981  0.94981351    -0.07870
C1265       C  0.86215273  0.89898831  0.92080332     0.05660
C1266       C  0.81620067  0.86673285  0.91958694    -0.02900
Br1267     Br  0.79077504  0.84565239  0.85259779    -0.02590
H1268       H  0.76011493  0.81819720  0.96492127     0.09570
H1269       H  0.92454148  0.91030720  0.94983815     0.07590
Br1270     Br  0.90798809  0.82839501  0.00003959    -0.03020
C1271       C  0.88570433  0.00891131  0.95219717    -0.09650
C1272       C  0.85895359  0.96957709  0.92487033     0.06540
C1273       C  0.81190640  0.95252928  0.92591124    -0.03420
C1274       C  0.79301038  0.96796657  0.96285614    -0.07870
C1275       C  0.82048668  0.00830586  0.98804139     0.05660
C1276       C  0.86707153  0.53060296  0.97659752    -0.02900
Br1277     Br  0.90620355  0.59257990  0.98599065    -0.02590
H1278       H  0.92166032  0.52440016  0.95302557     0.09570
H1279       H  0.75690796  0.95091398  0.96757779     0.07590
Br1280     Br  0.77544797  0.92560691  0.86644019    -0.03020
C1281       C  0.62122747  0.88619071  0.95409888    -0.09650
C1282       C  0.59593877  0.89143987  0.91531091     0.06540
C1283       C  0.55331443  0.85342041  0.90646255    -0.03420
C1284       C  0.53187536  0.81995386  0.94643744    -0.07870
C1285       C  0.55457863  0.82189747  0.99244687     0.05660
C1286       C  0.60019356  0.85503217  0.99517332    -0.02900
Br1287     Br  0.63419404  0.86249356  0.05688938    -0.02590
H1288       H  0.65671672  0.91005841  0.95754702     0.09570
H1289       H  0.49835542  0.79181817  0.94068917     0.07590
Br1290     Br  0.53604817  0.83501294  0.83542963    -0.03020
C1291       C  0.69645261  0.99098086  0.90137477    -0.09650
C1292       C  0.65326459  0.97397868  0.92401294     0.06540
C1293       C  0.64932589  0.97950309  0.97800052    -0.03420
C1294       C  0.68499036  0.99120735  0.01017221    -0.07870
C1295       C  0.72885811  0.00770518  0.98941635     0.05660
C1296       C  0.73464747  0.01128091  0.93317959    -0.02900
Br1297     Br  0.79170051  0.04757373  0.89666409    -0.02590
H1298       H  0.70041230  0.98885550  0.85913106     0.09570
H1299       H  0.67805026  0.98866275  0.05239452     0.07590
Br1300     Br  0.59358521  0.96466273  0.01046212    -0.03020
C1301       C  0.69004567  0.70915597  0.90414373    -0.09650
C1302       C  0.64704594  0.69525883  0.92566842     0.06540
C1303       C  0.64395681  0.70216140  0.97970649    -0.03420
C1304       C  0.68174699  0.73070783  0.00741119    -0.07870
C1305       C  0.72394165  0.74060869  0.98915456     0.05660
C1306       C  0.72777415  0.72832188  0.93685791    -0.02900
Br1307     Br  0.78174786  0.73376283  0.90994899    -0.02590
H1308       H  0.69427536  0.70475877  0.86262890     0.09570
H1309       H  0.67716942  0.73751481  0.04801052     0.07590
Br1310     Br  0.58943267  0.66938214  0.01946337    -0.03020
C1311       C  0.60060796  0.76800090  0.96917871    -0.09650
C1312       C  0.55444497  0.74546221  0.98147287     0.06540
C1313       C  0.52585715  0.71640449  0.94314569    -0.03420
C1314       C  0.54145519  0.69471527  0.91179800    -0.07870
C1315       C  0.58798378  0.71305228  0.90362938     0.05660
C1316       C  0.61610013  0.75607256  0.92470263    -0.02900
Br1317     Br  0.67661871  0.79633201  0.89965490    -0.02590
H1318       H  0.62458057  0.79420961  0.99364930     0.09330
H1319       H  0.51673079  0.66160037  0.90204204     0.07590
Br1320     Br  0.46422023  0.69876844  0.94109300    -0.03020
C1321       C  0.51721967  0.71386732  0.44172398    -0.09650
C1322       C  0.50272392  0.70919941  0.49520635     0.06540
C1323       C  0.97162527  0.66604137  0.51561832    -0.03420
C1324       C  0.96217762  0.62911740  0.48702390    -0.07870
C1325       C  0.97396553  0.63287659  0.43296998     0.05660
C1326       C  0.50036324  0.67626027  0.40961233    -0.02900
Br1327     Br  0.50884518  0.68668421  0.33446446    -0.02590
H1328       H  0.54113191  0.74661487  0.42486947     0.09570
H1329       H  0.94087064  0.59654940  0.50580037     0.07590
Br1330     Br  0.94120495  0.65535295  0.58315154    -0.03020
C1331       C  0.84117497  0.57350901  0.46690586    -0.09650
C1332       C  0.82319062  0.53141751  0.49170822     0.06540
C1333       C  0.83777523  0.50426519  0.47132990    -0.03420
C1334       C  0.87709850  0.52259117  0.44026540    -0.07870
C1335       C  0.89736952  0.56552125  0.41767364     0.05660
C1336       C  0.87519062  0.58869292  0.42694945    -0.02900
Br1337     Br  0.89441061  0.64408065  0.39113107    -0.02590
H1338       H  0.83035638  0.59540751  0.47966358     0.09570
H1339       H  0.89335015  0.50415775  0.43852482     0.07590
Br1340     Br  0.80398915  0.94156637  0.48264642    -0.03020
C1341       C  0.88882038  0.59330742  0.13711368    -0.09650
C1342       C  0.90651424  0.56654811  0.14548340     0.06540
C1343       C  0.88332034  0.52345546  0.12250347    -0.03420
C1344       C  0.84301811  0.50842750  0.09743084    -0.07870
C1345       C  0.83162525  0.53853736  0.07989371     0.05660
C1346       C  0.85557106  0.58196826  0.10021447    -0.02900
Br1347     Br  0.85543786  0.63084019  0.06852639    -0.02590
H1348       H  0.90580513  0.62624996  0.15319332     0.09570
H1349       H  0.82562420  0.47521201  0.08153038     0.07590
Br1350     Br  0.90756587  0.48753205  0.10528762    -0.03020
C1351       C  0.50865219  0.67593852  0.16293266    -0.09650
C1352       C  0.98753954  0.63311124  0.14060533     0.06540
C1353       C  0.99091922  0.63202531  0.08565710    -0.03420
C1354       C  0.00255834  0.66916714  0.05442606    -0.07870
C1355       C  0.52162589  0.71242957  0.07437393     0.05660
C1356       C  0.52930694  0.71552454  0.12989884    -0.02900
Br1357     Br  0.56708823  0.77162752  0.16238587    -0.02590
H1358       H  0.50894790  0.67875802  0.20548512     0.09570
H1359       H  0.99849937  0.66264059  0.01335886     0.07590
Br1360     Br  0.98439659  0.58151845  0.05020923    -0.03020
C1361       C  0.84152291  0.79910511  0.43569087    -0.09650
C1362       C  0.84404604  0.79613114  0.49104898     0.06540
C1363       C  0.88642565  0.81378246  0.51289195    -0.03420
C1364       C  0.92448472  0.84286240  0.48294895    -0.07870
C1365       C  0.92281876  0.84770161  0.42805586     0.05660
C1366       C  0.88082568  0.82314222  0.40378022    -0.02900
Br1367     Br  0.87480501  0.81854724  0.32851639    -0.02590
H1368       H  0.80936984  0.78533816  0.41760150     0.09570
H1369       H  0.95644766  0.85897951  0.50214453     0.07590
Br1370     Br  0.89457936  0.80030737  0.58394866    -0.03020
C1371       C  0.53404101  0.87187643  0.44104802    -0.09650
C1372       C  0.99264450  0.84680769  0.41625611     0.06540
C1373       C  0.97051454  0.79969665  0.42121433    -0.03420
C1374       C  0.98436872  0.78017123  0.45824513    -0.07870
C1375       C  0.52558976  0.80551970  0.48328334     0.05660
C1376       C  0.55249962  0.85145284  0.46853112    -0.02900
Br1377     Br  0.61388853  0.88984305  0.48751563    -0.02590
H1378       H  0.55188623  0.90774345  0.44193564     0.09570
H1379       H  0.96155132  0.74532017  0.46813776     0.07590
Br1380     Br  0.91966142  0.75969695  0.38095052    -0.03020
C1381       C  0.88683128  0.85741320  0.13283411    -0.09650
C1382       C  0.89750304  0.82811072  0.15626142     0.06540
C1383       C  0.86808671  0.78198810  0.14629764    -0.03420
C1384       C  0.83718007  0.76808186  0.10555724    -0.07870
C1385       C  0.82807767  0.79803436  0.08138699     0.05660
C1386       C  0.84988040  0.84173232  0.10058755    -0.02900
Br1387     Br  0.82860675  0.88025486  0.08510568    -0.02590
H1388       H  0.90736353  0.89290941  0.13767720     0.09570
H1389       H  0.81912986  0.73353214  0.09432653     0.07590
Br1390     Br  0.86115227  0.73582931  0.19296510    -0.03020
C1391       C  0.52106750  0.84738062  0.07806248    -0.09650
C1392       C  0.51187953  0.80302541  0.08108817     0.06540
C1393       C  0.98179068  0.77605168  0.12303654    -0.03420
C1394       C  0.96863856  0.79436081  0.16289560    -0.07870
C1395       C  0.97312214  0.83537320  0.15473275     0.05660
C1396       C  0.49975663  0.86209177  0.11164044    -0.02900
Br1397     Br  0.50395051  0.91709706  0.09454266    -0.02590
H1398       H  0.54220287  0.87064829  0.04701028     0.09570
H1399       H  0.94923819  0.77387365  0.19678776     0.07590
Br1400     Br  0.94202020  0.71411971  0.11962299    -0.03020
C1401       C  0.70187947  0.66883292  0.05690871    -0.09650
C1402       C  0.73350257  0.71199688  0.07500530     0.06540
C1403       C  0.73519323  0.71696628  0.13087191    -0.03420
C1404       C  0.71793854  0.67878847  0.16401742    -0.07870
C1405       C  0.68976632  0.63631692  0.14347709     0.05660
C1406       C  0.67581401  0.63308799  0.09137602    -0.02900
Br1407     Br  0.63215669  0.57729463  0.06135452    -0.02590
H1408       H  0.69703903  0.66208555  0.01518805     0.09570
H1409       H  0.72548046  0.68215254  0.20559472     0.07590
Br1410     Br  0.75123128  0.77133601  0.16491597    -0.03020
C1411       C  0.74481658  0.53437172  0.12562571    -0.09650
C1412       C  0.75603226  0.55042139  0.07256313     0.06540
C1413       C  0.75442363  0.58763961  0.05794449    -0.03420
C1414       C  0.74194327  0.60718832  0.09517328    -0.07870
C1415       C  0.71827683  0.58432239  0.14224099     0.05660
C1416       C  0.72714579  0.55227711  0.16115838    -0.02900
Br1417     Br  0.73259085  0.54572394  0.23547484    -0.02590
H1418       H  0.74967495  0.50829008  0.13920059     0.09570
H1419       H  0.74950540  0.63982971  0.08482021     0.07590
Br1420     Br  0.77095578  0.61540751  0.98831895    -0.03020
C1421       C  0.68834189  0.66101867  0.43171286    -0.09650
C1422       C  0.71311542  0.64187086  0.41647179     0.06540
C1423       C  0.75906774  0.66554556  0.42849779    -0.03420
C1424       C  0.77591970  0.69967940  0.46504679    -0.07870
C1425       C  0.75022109  0.71696599  0.48266068     0.05660
C1426       C  0.70810336  0.70031529  0.46041481    -0.02900
Br1427     Br  0.67736925  0.73130987  0.46689620    -0.02590
H1428       H  0.65287825  0.64451447  0.42582395     0.09570
H1429       H  0.80878208  0.71177670  0.48030361     0.07590
Br1430     Br  0.79902435  0.64954303  0.39956495    -0.03020
C1431       C  0.71390993  0.53656965  0.42116152    -0.09650
C1432       C  0.70084326  0.56602050  0.43710815     0.06540
C1433       C  0.70577403  0.57730151  0.49045981    -0.03420
C1434       C  0.73664152  0.57391460  0.51924872    -0.07870
C1435       C  0.74385787  0.53957264  0.50928190     0.05660
C1436       C  0.73000842  0.51908866  0.45896928    -0.02900
Br1437     Br  0.72803274  0.96626809  0.43973276    -0.02590
H1438       H  0.71101969  0.52642104  0.38064444     0.09570
H1439       H  0.74987613  0.59394144  0.55354931     0.07590
Br1440     Br  0.66562915  0.58987273  0.52708996    -0.03020
loop_ 
_geom_bond_atom_site_label_1 
_geom_bond_atom_site_label_2 
_geom_bond_distance 
_geom_bond_site_symmetry_2 
_ccdc_geom_bond_type 
C1            C2   1.361       .  D
C1           C17   1.560       .  S
C1           C38   1.549       .  S
C2          C342   1.521       .  S
C2          C352   1.506       .  S
C3            C4   1.370       .  D
C3          C325   1.489       .  S
C3          C335   1.530       .  S
C4           C15   1.581       .  S
C4           C40   1.578       .  S
O5           C15   1.249   1_565  A
O5         Ni373   1.937       .  S
O6           C16   1.261       .  A
O6          Ni13   1.905       .  S
O7           C17   1.224       .  A
O7         Ni373   1.889   1_545  S
O8           C18   1.235       .  A
O8          Ni13   1.816       .  S
O9           C18   1.314       .  A
O9          Ni14   2.096       .  S
O10         C377   1.301       .  A
O10         Ni14   2.086       .  S
O11          C16   1.294       .  A
O11         Ni14   1.974       .  S
O12         C375   1.304       .  A
O12         Ni14   2.053       .  S
Ni13        O365   1.937       .  S
Ni13        O367   1.889       .  S
Ni13        Ni14   2.168       .  S
C15         O372   1.304   1_545  A
C16         C741   1.524   1_455  S
C17         O370   1.301   1_545  A
C18         C739   1.590   1_455  S
C19          C20   1.370       .  D
C19          C52   1.562       .  S
C19         C738   1.590       .  S
C20         C302   1.527       .  S
C20         C315   1.489       .  S
C21          C22   1.382       .  D
C21          C54   1.581       .  S
C21         C736   1.524       .  S
C22         C285   1.481       .  S
C22         C292   1.532       .  S
C23          C24   1.371       .  D
C23          C53   1.567       .  S
C23         C757   1.586       .  S
C24         C262   1.523       .  S
C24         C272   1.522       .  S
C25          C26   1.376       .  D
C25         C245   1.501       .  S
C25         C255   1.518       .  S
C26          C51   1.554       .  S
C26         C759   1.567       .  S
O27          C37   1.253       .  A
O27         Ni35   1.898       .  S
O28          C38   1.250       .  A
O28         Ni35   1.840       .  S
O29          C39   1.248       .  A
O29         Ni35   1.896       .  S
O30          C40   1.254       .  A
O30         Ni35   1.833       .  S
O31          C40   1.303       .  A
O31         Ni36   2.031       .  S
O32          C39   1.303       .  A
O32         Ni36   2.046       .  S
O33          C38   1.307       .  A
O33         Ni36   2.039       .  S
O34          C37   1.290       .  A
O34         Ni36   2.034       .  S
Ni35        Ni36   2.310       .  S
C37         C743   1.586   1_455  S
C39         C746   1.567   1_455  S
O41          C51   1.228       .  A
O41        Ni409   1.897   1_545  S
O42          C52   1.241       .  A
O42         Ni49   1.813       .  S
O43          C53   1.213       .  A
O43        Ni409   1.848   1_545  S
O44          C54   1.281       .  A
O44         Ni49   1.924       .  S
O45          C54   1.295       .  A
O45         Ni50   2.006       .  S
O46         C413   1.315       .  A
O46         Ni50   2.098       .  S
O47          C52   1.313       .  A
O47         Ni50   2.066       .  S
O48         C411   1.280       .  A
O48         Ni50   2.014       .  S
Ni49        O401   1.897       .  S
Ni49        O403   1.848       .  S
Ni49        Ni50   2.278       .  S
C51         O408   1.280   1_545  A
C53         O406   1.315   1_545  A
C55          C56   1.379       .  D
C55          C74   1.574       .  S
C55          C92   1.557       .  S
C56         C222   1.513       .  S
C56         C235   1.533       .  S
C57          C58   1.377       .  D
C57         C202   1.531       .  S
C57         C212   1.502       .  S
C58         C105   1.565       .  S
C58         C435   1.556       .  S
C59          C60   1.389       .  D
C59         C108   1.569       .  S
C59         C453   1.549       .  S
C60         C185   1.512       .  S
C60         C192   1.528       .  S
C61          C62   1.378       .  D
C61         C107   1.560       .  S
C61         C433   1.614       .  S
C62         C162   1.477       .  S
C62         C175   1.528       .  S
O63          C73   1.296   1_545  A
O63         Ni71   2.053       .  S
O64          C74   1.309       .  A
O64         Ni71   2.057       .  S
O65          C75   1.304       .  A
O65         Ni71   2.033       .  S
O66          C76   1.301       .  A
O66         Ni71   2.043       .  S
O67          C76   1.249       .  A
O67         Ni72   1.824       .  S
O68          C75   1.246       .  A
O68         Ni72   1.869       .  S
O69          C74   1.257       .  A
O69         Ni72   1.881       .  S
O70          C73   1.257   1_545  A
O70         Ni72   1.911       .  S
Ni71        Ni72   2.305       .  S
C73         C421   1.614       .  S
C75         C418   1.556   1_545  S
C76          C77   1.577       .  S
C77          C78   1.372       .  D
C77          C94   1.587       .  S
C78         C142   1.520       .  S
C78         C155   1.495       .  S
C79          C80   1.360       .  D
C79         C122   1.489       .  S
C79         C135   1.499       .  S
C80         C106   1.569       .  S
C80         C451   1.559       .  S
O81          C91   1.233       .  A
O81         Ni89   1.835   1_565  S
O82          C92   1.223       .  A
O82        Ni809   1.894       .  S
O83          C93   1.262       .  A
O83         Ni89   1.912       .  S
O84          C94   1.252       .  A
O84        Ni809   1.931       .  S
O85         C814   1.308       .  A
O85         Ni90   2.053       .  S
O86          C93   1.302       .  A
O86         Ni90   2.018       .  S
O87         C812   1.298       .  A
O87         Ni90   2.054       .  S
O88          C91   1.305   1_545  A
O88         Ni90   2.061       .  S
Ni89        O802   1.894       .  S
Ni89        O804   1.931       .  S
Ni89        Ni90   2.174       .  S
C91         C440   1.559       .  S
C92         O807   1.298       .  A
C93         C419   1.549   1_545  S
C94         O805   1.308       .  A
O95         C825   1.285       .  A
O95        Ni103   2.051       .  S
O96         C106   1.320       .  A
O96        Ni103   2.079       .  S
O97         C827   1.311       .  A
O97        Ni103   2.084       .  S
O98         C108   1.291       .  A
O98        Ni103   1.977       .  S
O99         C108   1.286       .  A
O99        Ni104   1.936       .  S
O100        C107   1.215       .  A
O100       Ni824   1.865       .  S
O101        C106   1.244       .  A
O101       Ni104   1.819       .  S
O102        C105   1.225       .  A
O102       Ni824   1.914       .  S
Ni103      Ni104   2.262       .  S
Ni104       O820   1.865       .  S
Ni104       O822   1.914       .  S
C105        O815   1.285       .  A
C107        O817   1.311       .  A
C109        C110   1.392       .  D
C109        C182   1.529   1_554  S
C109        C305   1.509       .  S
C110        C225   1.509   1_554  S
C110        C322   1.528       .  S
C111        C112   1.402       .  D
C111        C205   1.503   1_554  S
C111        C312   1.546       .  S
C112        C232   1.523   1_554  S
C112        C275   1.549       .  S
C113        C114   1.381       .  D
C113        C265   1.513       .  S
C113        C555   1.514   1_554  S
C114        C332   1.495       .  S
C114        C575   1.521   1_554  S
C115        C116   1.387       .  D
C115        C252   1.523       .  S
C115        C492   1.503       .  S
C116        C355   1.530       .  S
C116        C525   1.563       .  S
C117        C118   1.390       .  D
C117        C172   1.517       .  S
C117        C295   1.526       .  S
C118        C152   1.516       .  S
C118        C242   1.502       .  S
C119        C120   1.368       .  D
C119        C145   1.509       .  S
C119        C345   1.506       .  S
C120        C125   1.497       .  S
C120        C282   1.491       .  S
C121        C122   1.398       .  A
C121        C126   1.384       .  A
C121        H128   1.083       .  S
C122        C123   1.410       .  A
C123        C124   1.398       .  A
C123       Br130   1.898       .  S
C124        C125   1.405       .  A
C124        H129   1.082       .  S
C125        C126   1.416       .  A
C126       Br127   1.920       .  S
C131        C492   1.405       .  A
C131        C496   1.401       .  A
C131        H138   1.081       .  S
C132        C475   1.503       .  S
C132        C133   1.409       .  A
C132        C491   1.405       .  A
C133        C134   1.396       .  A
C133       Br140   1.905       .  S
C134        C135   1.405       .  A
C134        H139   1.084       .  S
C135        C136   1.418       .  A
C136        C491   1.401       .  A
C136       Br497   1.920       .  S
Br137       C496   1.920       .  S
C141        C142   1.409       .  A
C141        C146   1.405       .  A
C141        H148   1.078       .  S
C142        C143   1.422       .  A
C143        C144   1.407       .  A
C143       Br150   1.916       .  S
C144        C145   1.402       .  A
C144        H149   1.082       .  S
C145        C146   1.402       .  A
C146       Br147   1.904       .  S
C151        C152   1.416       .  A
C151        C156   1.384       .  A
C151        H158   1.082       .  S
C152        C153   1.422       .  A
C153        C154   1.411       .  A
C153       Br160   1.920       .  S
C154        C155   1.409       .  A
C154        H159   1.083       .  S
C155        C156   1.395       .  A
C156       Br157   1.921       .  S
C161        C166   1.381       .  A
C161        C522   1.395   1_545  A
C161        H168   1.083       .  S
C162        C163   1.417       .  A
C162        C521   1.395       .  A
C163        C164   1.418       .  A
C163       Br170   1.918       .  S
C164        C165   1.418       .  A
C164        H169   1.073       .  S
C165        C476   1.563       .  S
C165        C526   1.401       .  A
C166        C525   1.401       .  A
C166       Br167   1.914       .  S
C171        C172   1.410       .  A
C171        C176   1.397       .  A
C171        H178   1.083       .  S
C172        C173   1.411       .  A
C173        C174   1.413       .  A
C173       Br180   1.915       .  S
C174        C175   1.418       .  A
C174        H179   1.076       .  S
C175        C176   1.417       .  A
C176       Br177   1.925       .  S
C181        C182   1.408       .  A
C181        C186   1.391       .  A
C181        H188   1.074       .  S
C182        C183   1.431       .  A
C183        C184   1.408       .  A
C183       Br190   1.924   1_556  S
C184        C185   1.406       .  A
C184        H189   1.083       .  S
C185        C186   1.400       .  A
C186       Br187   1.901       .  S
C191        C192   1.400       .  A
C191        C556   1.391       .  A
C191        H558   1.080       .  S
C192        C193   1.430       .  A
C193        C194   1.410       .  A
C193       Br200   1.906       .  S
C194        C195   1.400       .  A
C194        H199   1.082       .  S
C195        C473   1.514   1_556  S
C195        C556   1.412       .  A
C196        C551   1.391       .  A
C196        C555   1.412       .  A
C196       Br197   1.893       .  S
H198        C551   1.080       .  S
C201        C202   1.417       .  A
C201        C206   1.386       .  A
C201        H208   1.080       .  S
C202        C203   1.409       .  A
C203        C204   1.410       .  A
C203       Br210   1.917       .  S
C204        C205   1.410       .  A
C204        H209   1.080   1_455  S
C205        C206   1.401       .  A
C206       Br207   1.924   1_556  S
C211        C212   1.408       .  A
C211        C216   1.416       .  A
C211        H218   1.083       .  S
C212        C213   1.395       .  A
C213        C214   1.383   1_556  A
C213       Br220   1.904   1_556  S
C214        C215   1.414   1_554  A
C214        H219   1.082       .  S
C215        C474   1.521   1_556  S
C215        C216   1.427       .  A
C216       Br217   1.919       .  S
C221        C222   1.413       .  A
C221        C226   1.419       .  A
C221        H228   1.081       .  S
C222        C223   1.403       .  A
C223        C224   1.381   1_556  A
C223       Br230   1.887   1_556  S
C224        C225   1.399   1_554  A
C224        H229   1.085       .  S
C225        C226   1.422       .  A
C226       Br227   1.915       .  S
C231        C232   1.403       .  A
C231        C236   1.404       .  A
C231        H238   1.076       .  S
C232        C233   1.405       .  A
C233        C234   1.403       .  A
C233       Br240   1.916   1_455  S
C234        C235   1.414       .  A
C234        H239   1.060       .  S
C235        C236   1.422       .  A
C236       Br237   1.913       .  S
C241        C242   1.411       .  A
C241        C246   1.411       .  A
C241        H248   1.083       .  S
C242        C963   1.408   1_455  A
C243        C244   1.384       .  A
C243        C962   1.408       .  A
C243       Br250   1.918       .  S
C244        C245   1.404       .  A
C244        H249   1.083       .  S
C245        C966   1.419       .  A
C246        C965   1.419   1_455  A
C246       Br247   1.919       .  S
C251        C252   1.408       .  A
C251        C256   1.412       .  A
C251        H258   1.082       .  S
C252        C253   1.409       .  A
C253        C254   1.393       .  A
C253       Br620   1.897   1_545  S
C254        C255   1.401       .  A
C254        H259   1.077       .  S
C255        C256   1.423       .  A
C256       Br257   1.914       .  S
Br260       C613   1.898       .  S
C261        C262   1.405       .  A
C261        C266   1.401       .  A
C261        H268   1.079       .  S
C262        C263   1.432       .  A
C263        C264   1.395       .  A
C263       Br270   1.925   1_545  S
C264        C265   1.400       .  A
C264        H269   1.085   1_545  S
C265        C266   1.414       .  A
C266       Br267   1.908       .  S
C271        C276   1.436       .  A
C271        C992   1.418   1_455  A
C271        H278   1.082       .  S
C272        C273   1.395       .  A
C272        C991   1.418       .  A
C273        C274   1.386       .  A
C273       Br280   1.916       .  S
C274        C995   1.412       .  A
C274        H279   1.063       .  S
C275        C276   1.431       .  A
C275        C994   1.412       .  A
C276       Br277   1.914       .  S
C281        C282   1.412       .  A
C281        C286   1.404       .  A
C281        H288   1.082       .  S
C282        C283   1.406       .  A
C283        C284   1.378       .  A
C283       Br290   1.923       .  S
C284        C285   1.404       .  A
C284        H289   1.084       .  S
C285        C286   1.416       .  A
C286       Br287   1.919       .  S
C291        C296   1.396       .  A
C291       C1012   1.408   1_455  A
C291        H298   1.079       .  S
C292        C293   1.421       .  A
C292       C1011   1.408       .  A
C293        C294   1.403       .  A
C293       Br300   1.914       .  S
C294       C1015   1.407       .  A
C294        H299   1.078       .  S
C295        C296   1.421       .  A
C295       C1014   1.407   1_455  A
C296       Br297   1.919       .  S
C301        C302   1.412       .  A
C301        C306   1.399       .  A
C301        H308   1.077       .  S
C302        C303   1.424       .  A
C303        C304   1.408       .  A
C303       Br310   1.914       .  S
C304        C305   1.404       .  A
C304        H309   1.082       .  S
C305        C306   1.411       .  A
C306       Br307   1.921       .  S
C311        C312   1.429       .  A
C311        C316   1.399   1_455  A
C311        H318   1.076       .  S
C312       C1033   1.419   1_455  A
C313        C314   1.402       .  A
C313       C1032   1.419       .  A
C313       Br320   1.878       .  S
C314        C315   1.391       .  A
C314        H319   1.078       .  S
C315       C1036   1.397       .  A
C316       C1035   1.397       .  A
C316       Br317   1.923   1_655  S
C321        C322   1.419       .  A
C321        C326   1.383       .  A
C321        H328   1.081       .  S
C322        C323   1.424       .  A
C323        C324   1.409       .  A
C323       Br330   1.917       .  S
C324        C325   1.403       .  A
C324        H329   1.083       .  S
C325        C326   1.402       .  A
C326       Br327   1.922       .  S
C331        C332   1.415       .  A
C331        C336   1.417       .  A
C331        H338   1.083       .  S
C332        C333   1.400       .  A
C333        C334   1.371       .  A
C333       Br340   1.929   1_554  S
C334        C335   1.409       .  A
C334        H339   1.070       .  S
C335        C336   1.414       .  A
C336       Br337   1.919       .  S
C341        C342   1.413       .  A
C341        C346   1.401       .  A
C341        H348   1.076       .  S
C342        C343   1.414       .  A
C343        C344   1.398       .  A
C343       Br350   1.913       .  S
C344        C345   1.406       .  A
C344        H349   1.081       .  S
C345        C346   1.407       .  A
C346       Br347   1.919       .  S
C351        C352   1.408       .  A
C351        C356   1.419       .  A
C351        H358   1.078       .  S
C352        C353   1.399       .  A
C353        C354   1.381       .  A
C353       Br360   1.919       .  S
C354        C355   1.396       .  A
C354        H359   1.073       .  S
C355        C356   1.433       .  A
C356       Br717   1.908   1_545  S
Br357       C716   1.908       .  S
C361        C362   1.361       .  D
C361        C377   1.560       .  S
C361        C398   1.549       .  S
C362        C702   1.521       .  S
C362        C712   1.506       .  S
C363        C364   1.370       .  D
C363        C685   1.489       .  S
C363        C695   1.530       .  S
C364        C375   1.581       .  S
C364        C400   1.578       .  S
O365        C375   1.249       .  A
O366        C376   1.261       .  A
O366       Ni373   1.905       .  S
O367        C377   1.224       .  A
O368        C378   1.235       .  A
O368       Ni373   1.816       .  S
O369        C378   1.314       .  A
O369       Ni374   2.096       .  S
O370       Ni374   2.086       .  S
O371        C376   1.294       .  A
O371       Ni374   1.974       .  S
O372       Ni374   2.053       .  S
Ni373      Ni374   2.168       .  S
C376       C1101   1.524   1_455  S
C378       C1099   1.590   1_455  S
C379        C380   1.370       .  D
C379       C1098   1.590       .  S
C379        C412   1.562       .  S
C380        C662   1.527       .  S
C380        C675   1.489       .  S
C381        C382   1.382       .  D
C381       C1096   1.524       .  S
C381        C414   1.581       .  S
C382        C645   1.481       .  S
C382        C652   1.532       .  S
C383        C384   1.371       .  D
C383       C1117   1.586       .  S
C383        C413   1.567       .  S
C384        C622   1.523       .  S
C384        C632   1.522       .  S
C385        C386   1.376       .  D
C385        C605   1.501       .  S
C385        C615   1.518       .  S
C386       C1119   1.567       .  S
C386        C411   1.554       .  S
O387        C397   1.253       .  A
O387       Ni395   1.898       .  S
O388        C398   1.250       .  A
O388       Ni395   1.840       .  S
O389        C399   1.248       .  A
O389       Ni395   1.896       .  S
O390        C400   1.254       .  A
O390       Ni395   1.833       .  S
O391        C400   1.303       .  A
O391       Ni396   2.031       .  S
O392        C399   1.303       .  A
O392       Ni396   2.046       .  S
O393        C398   1.307       .  A
O393       Ni396   2.039       .  S
O394        C397   1.290       .  A
O394       Ni396   2.034       .  S
Ni395      Ni396   2.310       .  S
C397       C1103   1.586   1_455  S
C399       C1106   1.567   1_455  S
O401        C411   1.228       .  A
O402        C412   1.241       .  A
O402       Ni409   1.813       .  S
O403        C413   1.213       .  A
O404        C414   1.281       .  A
O404       Ni409   1.924       .  S
O405        C414   1.295       .  A
O405       Ni410   2.006       .  S
O406       Ni410   2.098       .  S
O407        C412   1.313       .  A
O407       Ni410   2.066       .  S
O408       Ni410   2.014       .  S
Ni409      Ni410   2.278       .  S
C415        C416   1.379       .  D
C415        C434   1.574       .  S
C415        C452   1.557       .  S
C416        C582   1.513       .  S
C416        C595   1.533       .  S
C417        C418   1.377       .  D
C417        C562   1.531       .  S
C417        C572   1.502       .  S
C418        C465   1.565       .  S
C419        C420   1.389       .  D
C419        C468   1.569       .  S
C420        C545   1.512       .  S
C420        C552   1.528       .  S
C421        C422   1.378       .  D
C421        C467   1.560       .  S
C422        C522   1.477       .  S
C422        C535   1.528       .  S
O423        C433   1.296       .  A
O423       Ni431   2.053       .  S
O424        C434   1.309       .  A
O424       Ni431   2.057       .  S
O425        C435   1.304       .  A
O425       Ni431   2.033       .  S
O426        C436   1.301       .  A
O426       Ni431   2.043       .  S
O427        C436   1.249       .  A
O427       Ni432   1.823       .  S
O428        C435   1.246       .  A
O428       Ni432   1.869       .  S
O429        C434   1.257       .  A
O429       Ni432   1.881       .  S
O430        C433   1.257       .  A
O430       Ni432   1.911       .  S
Ni431      Ni432   2.305       .  S
C436        C437   1.577       .  S
C437        C438   1.372       .  D
C437        C454   1.587       .  S
C438        C502   1.520       .  S
C438        C515   1.495       .  S
C439        C440   1.361       .  D
C439        C482   1.489       .  S
C439        C495   1.499       .  S
C440        C466   1.569       .  S
O441        C451   1.233       .  A
O441       Ni449   1.835       .  S
O442        C452   1.223       .  A
O442      Ni1169   1.894       .  S
O443        C453   1.262       .  A
O443       Ni449   1.912       .  S
O444        C454   1.252       .  A
O444      Ni1169   1.931       .  S
O445       C1174   1.308       .  A
O445       Ni450   2.053       .  S
O446        C453   1.302       .  A
O446       Ni450   2.018       .  S
O447       C1172   1.298       .  A
O447       Ni450   2.054       .  S
O448        C451   1.305       .  A
O448       Ni450   2.061       .  S
Ni449      O1162   1.894       .  S
Ni449      O1164   1.931       .  S
Ni449      Ni450   2.174       .  S
C452       O1167   1.298       .  A
C454       O1165   1.308       .  A
O455       C1185   1.285       .  A
O455       Ni463   2.051       .  S
O456        C466   1.320       .  A
O456       Ni463   2.079       .  S
O457       C1187   1.311       .  A
O457       Ni463   2.084       .  S
O458        C468   1.291       .  A
O458       Ni463   1.977       .  S
O459        C468   1.286       .  A
O459       Ni464   1.936       .  S
O460        C467   1.215       .  A
O460      Ni1184   1.865       .  S
O461        C466   1.244       .  A
O461       Ni464   1.819       .  S
O462        C465   1.225       .  A
O462      Ni1184   1.914       .  S
Ni463      Ni464   2.262       .  S
Ni464      O1180   1.865       .  S
Ni464      O1182   1.914       .  S
C465       O1175   1.285       .  A
C467       O1177   1.311       .  A
C469        C470   1.392       .  D
C469        C542   1.529   1_554  S
C469        C665   1.509       .  S
C470        C585   1.509   1_554  S
C470        C682   1.528       .  S
C471        C472   1.402       .  D
C471        C565   1.503   1_554  S
C471        C672   1.546       .  S
C472        C592   1.523   1_554  S
C472        C635   1.549       .  S
C473        C474   1.381       .  D
C473        C625   1.513       .  S
C474        C692   1.494       .  S
C475        C476   1.387       .  D
C475        C612   1.523       .  S
C476        C715   1.530       .  S
C477        C478   1.390       .  D
C477        C532   1.517       .  S
C477        C655   1.526       .  S
C478        C512   1.516       .  S
C478        C602   1.502       .  S
C479        C480   1.368       .  D
C479        C505   1.509       .  S
C479        C705   1.506       .  S
C480        C485   1.497       .  S
C480        C642   1.491       .  S
C481        C482   1.398       .  A
C481        C486   1.384       .  A
C481        H488   1.083       .  S
C482        C483   1.410       .  A
C483        C484   1.398       .  A
C483       Br490   1.898       .  S
C484        C485   1.405       .  A
C484        H489   1.082       .  S
C485        C486   1.416       .  A
C486       Br487   1.920       .  S
C491        H498   1.081       .  S
C492        C493   1.409   1_545  A
C493        C494   1.396       .  A
C493       Br500   1.905       .  S
C494        C495   1.405       .  A
C494        H499   1.084       .  S
C495        C496   1.417   1_565  A
C501        C502   1.409       .  A
C501        C506   1.405       .  A
C501        H508   1.078       .  S
C502        C503   1.422       .  A
C503        C504   1.407       .  A
C503       Br510   1.916       .  S
C504        C505   1.403       .  A
C504        H509   1.082       .  S
C505        C506   1.402       .  A
C506       Br507   1.904       .  S
C511        C512   1.416       .  A
C511        C516   1.384       .  A
C511        H518   1.082       .  S
C512        C513   1.422       .  A
C513        C514   1.411       .  A
C513       Br520   1.920       .  S
C514        C515   1.409       .  A
C514        H519   1.083       .  S
C515        C516   1.395       .  A
C516       Br517   1.921       .  S
C521        C526   1.381       .  A
C521        H528   1.083       .  S
C522        C523   1.417       .  A
C523        C524   1.418       .  A
C523       Br530   1.918       .  S
C524        C525   1.418   1_565  A
C524        H529   1.073       .  S
C526       Br527   1.914       .  S
C531        C532   1.410       .  A
C531        C536   1.397       .  A
C531        H538   1.083       .  S
C532        C533   1.411       .  A
C533        C534   1.413       .  A
C533       Br540   1.915       .  S
C534        C535   1.418       .  A
C534        H539   1.076       .  S
C535        C536   1.417       .  A
C536       Br537   1.925       .  S
C541        C542   1.408       .  A
C541        C546   1.391       .  A
C541        H548   1.074       .  S
C542        C543   1.431       .  A
C543        C544   1.408       .  A
C543       Br550   1.924   1_556  S
C544        C545   1.406       .  A
C544        H549   1.083       .  S
C545        C546   1.400       .  A
C546       Br547   1.901       .  S
C551        C552   1.400   1_545  A
C552        C553   1.430       .  A
C553        C554   1.410       .  A
C553       Br560   1.906       .  S
C554        C555   1.400   1_565  A
C554        H559   1.082       .  S
C556       Br557   1.893       .  S
C561        C562   1.417       .  A
C561        C566   1.386       .  A
C561        H568   1.080       .  S
C562        C563   1.409       .  A
C563        C564   1.410       .  A
C563       Br570   1.917       .  S
C564        C565   1.410       .  A
C564        H569   1.080   1_455  S
C565        C566   1.401       .  A
C566       Br567   1.924   1_556  S
C571        C572   1.408       .  A
C571        C576   1.416   1_565  A
C571        H578   1.083       .  S
C572        C573   1.395       .  A
C573        C574   1.383   1_556  A
C573       Br580   1.904   1_556  S
C574        C575   1.414   1_564  A
C574        H579   1.082       .  S
C575        C576   1.427       .  A
C576       Br577   1.919       .  S
C581        C582   1.413       .  A
C581        C586   1.419       .  A
C581        H588   1.081       .  S
C582        C583   1.403       .  A
C583        C584   1.381   1_556  A
C583       Br590   1.887   1_556  S
C584        C585   1.399   1_554  A
C584        H589   1.085       .  S
C585        C586   1.422       .  A
C586       Br587   1.915       .  S
C591        C592   1.403       .  A
C591        C596   1.403       .  A
C591        H598   1.076       .  S
C592        C593   1.405       .  A
C593        C594   1.402       .  A
C593       Br600   1.916   1_455  S
C594        C595   1.414       .  A
C594        H599   1.060       .  S
C595        C596   1.422       .  A
C596       Br597   1.913       .  S
C601        C602   1.411       .  A
C601        C606   1.411       .  A
C601        H608   1.083       .  S
C602       C1323   1.408   1_455  A
C603       C1322   1.408       .  A
C603        C604   1.384       .  A
C603       Br610   1.918       .  S
C604        C605   1.404       .  A
C604        H609   1.083       .  S
C605       C1326   1.419       .  A
C606       C1325   1.419   1_455  A
C606       Br607   1.919       .  S
C611        C612   1.408       .  A
C611        C616   1.412       .  A
C611        H618   1.082       .  S
C612        C613   1.409       .  A
C613        C614   1.393       .  A
C614        C615   1.401       .  A
C614        H619   1.077       .  S
C615        C616   1.423       .  A
C616       Br617   1.914       .  S
C621        C622   1.405       .  A
C621        C626   1.401       .  A
C621        H628   1.079       .  S
C622        C623   1.432       .  A
C623        C624   1.395       .  A
C623       Br630   1.925       .  S
C624        C625   1.400       .  A
C624        H629   1.085       .  S
C625        C626   1.414       .  A
C626       Br627   1.908       .  S
C631       C1352   1.418   1_455  A
C631        C636   1.436       .  A
C631        H638   1.082       .  S
C632       C1351   1.418       .  A
C632        C633   1.395       .  A
C633        C634   1.386       .  A
C633       Br640   1.916       .  S
C634       C1355   1.412       .  A
C634        H639   1.063       .  S
C635       C1354   1.412       .  A
C635        C636   1.431       .  A
C636       Br637   1.914       .  S
C641        C642   1.412       .  A
C641        C646   1.404       .  A
C641        H648   1.082       .  S
C642        C643   1.406       .  A
C643        C644   1.378       .  A
C643       Br650   1.923       .  S
C644        C645   1.404       .  A
C644        H649   1.084       .  S
C645        C646   1.416       .  A
C646       Br647   1.919       .  S
C651       C1372   1.408   1_455  A
C651        C656   1.396       .  A
C651        H658   1.079       .  S
C652       C1371   1.408       .  A
C652        C653   1.421       .  A
C653        C654   1.403       .  A
C653       Br660   1.914       .  S
C654       C1375   1.407       .  A
C654        H659   1.078       .  S
C655       C1374   1.407   1_455  A
C655        C656   1.421       .  A
C656       Br657   1.919       .  S
C661        C662   1.412       .  A
C661        C666   1.399       .  A
C661        H668   1.077       .  S
C662        C663   1.424       .  A
C663        C664   1.408       .  A
C663       Br670   1.914       .  S
C664        C665   1.404       .  A
C664        H669   1.082       .  S
C665        C666   1.411       .  A
C666       Br667   1.921       .  S
C671        C672   1.429       .  A
C671        C676   1.399   1_455  A
C671        H678   1.076       .  S
C672       C1393   1.419   1_455  A
C673       C1392   1.419       .  A
C673        C674   1.402       .  A
C673       Br680   1.878       .  S
C674        C675   1.391       .  A
C674        H679   1.078       .  S
C675       C1396   1.397       .  A
C676       C1395   1.397       .  A
C676       Br677   1.923   1_655  S
C681        C682   1.419       .  A
C681        C686   1.383       .  A
C681        H688   1.081       .  S
C682        C683   1.424       .  A
C683        C684   1.409       .  A
C683       Br690   1.917       .  S
C684        C685   1.403       .  A
C684        H689   1.083       .  S
C685        C686   1.402       .  A
C686       Br687   1.922       .  S
C691        C692   1.415       .  A
C691        C696   1.417       .  A
C691        H698   1.083       .  S
C692        C693   1.400       .  A
C693        C694   1.371       .  A
C693       Br700   1.929   1_554  S
C694        C695   1.409       .  A
C694        H699   1.070       .  S
C695        C696   1.414       .  A
C696       Br697   1.919       .  S
C701        C702   1.413       .  A
C701        C706   1.401       .  A
C701        H708   1.076       .  S
C702        C703   1.414       .  A
C703        C704   1.398       .  A
C703       Br710   1.913       .  S
C704        C705   1.406       .  A
C704        H709   1.081       .  S
C705        C706   1.407       .  A
C706       Br707   1.919       .  S
C711        C712   1.408       .  A
C711        C716   1.419       .  A
C711        H718   1.078       .  S
C712        C713   1.399       .  A
C713        C714   1.381       .  A
C713       Br720   1.919       .  S
C714        C715   1.396       .  A
C714        H719   1.073       .  S
C715        C716   1.433       .  A
C721        C722   1.361       .  D
C721        C737   1.560       .  S
C721        C758   1.549       .  S
C722       C1062   1.521       .  S
C722       C1072   1.506       .  S
C723        C724   1.370       .  D
C723       C1045   1.489       .  S
C723       C1055   1.530       .  S
C724        C735   1.581       .  S
C724        C760   1.578       .  S
O725        C735   1.249   1_565  A
O725      Ni1093   1.937       .  S
O726        C736   1.261       .  A
O726       Ni733   1.905       .  S
O727        C737   1.224       .  A
O727      Ni1093   1.889   1_545  S
O728        C738   1.235       .  A
O728       Ni733   1.816       .  S
O729        C738   1.314       .  A
O729       Ni734   2.096       .  S
O730       C1097   1.301       .  A
O730       Ni734   2.086       .  S
O731        C736   1.294       .  A
O731       Ni734   1.974       .  S
O732       C1095   1.304       .  A
O732       Ni734   2.053       .  S
Ni733      O1085   1.937       .  S
Ni733      O1087   1.889       .  S
Ni733      Ni734   2.168       .  S
C735       O1092   1.304   1_545  A
C737       O1090   1.301   1_545  A
C739        C740   1.370       .  D
C739        C772   1.562       .  S
C740       C1022   1.527       .  S
C740       C1035   1.489       .  S
C741        C742   1.382       .  D
C741        C774   1.581       .  S
C742       C1005   1.481       .  S
C742       C1012   1.532       .  S
C743        C744   1.371       .  D
C743        C773   1.567       .  S
C744        C982   1.523       .  S
C744        C992   1.522       .  S
C745        C746   1.376       .  D
C745        C965   1.501       .  S
C745        C975   1.518       .  S
C746        C771   1.554       .  S
O747        C757   1.253       .  A
O747       Ni755   1.898       .  S
O748        C758   1.250       .  A
O748       Ni755   1.840       .  S
O749        C759   1.248       .  A
O749       Ni755   1.896       .  S
O750        C760   1.254       .  A
O750       Ni755   1.833       .  S
O751        C760   1.303       .  A
O751       Ni756   2.031       .  S
O752        C759   1.303       .  A
O752       Ni756   2.046       .  S
O753        C758   1.307       .  A
O753       Ni756   2.039       .  S
O754        C757   1.290       .  A
O754       Ni756   2.034       .  S
Ni755      Ni756   2.310       .  S
O761        C771   1.228       .  A
O761      Ni1129   1.897   1_545  S
O762        C772   1.241       .  A
O762       Ni769   1.813       .  S
O763        C773   1.213       .  A
O763      Ni1129   1.848   1_545  S
O764        C774   1.281       .  A
O764       Ni769   1.924       .  S
O765        C774   1.295       .  A
O765       Ni770   2.006       .  S
O766       C1133   1.315       .  A
O766       Ni770   2.098       .  S
O767        C772   1.313       .  A
O767       Ni770   2.066       .  S
O768       C1131   1.280       .  A
O768       Ni770   2.014       .  S
Ni769      O1121   1.897       .  S
Ni769      O1123   1.848       .  S
Ni769      Ni770   2.278       .  S
C771       O1128   1.280   1_545  A
C773       O1126   1.315   1_545  A
C775        C776   1.379       .  D
C775        C794   1.574       .  S
C775        C812   1.557       .  S
C776        C942   1.513       .  S
C776        C955   1.533       .  S
C777        C778   1.377       .  D
C777        C922   1.531       .  S
C777        C932   1.502       .  S
C778       C1155   1.556       .  S
C778        C825   1.565       .  S
C779        C780   1.389       .  D
C779       C1173   1.549       .  S
C779        C828   1.569       .  S
C780        C905   1.512       .  S
C780        C912   1.528       .  S
C781        C782   1.378       .  D
C781       C1153   1.614       .  S
C781        C827   1.560       .  S
C782        C882   1.477       .  S
C782        C895   1.528       .  S
O783        C793   1.296   1_545  A
O783       Ni791   2.053       .  S
O784        C794   1.309       .  A
O784       Ni791   2.057       .  S
O785        C795   1.304       .  A
O785       Ni791   2.033       .  S
O786        C796   1.301       .  A
O786       Ni791   2.043       .  S
O787        C796   1.249       .  A
O787       Ni792   1.824       .  S
O788        C795   1.246       .  A
O788       Ni792   1.869       .  S
O789        C794   1.257       .  A
O789       Ni792   1.881       .  S
O790        C793   1.257   1_545  A
O790       Ni792   1.911       .  S
Ni791      Ni792   2.305       .  S
C793       C1141   1.614       .  S
C795       C1138   1.556   1_545  S
C796        C797   1.577       .  S
C797        C798   1.372       .  D
C797        C814   1.587       .  S
C798        C862   1.520       .  S
C798        C875   1.495       .  S
C799        C800   1.360       .  D
C799        C842   1.489       .  S
C799        C855   1.499       .  S
C800       C1171   1.559       .  S
C800        C826   1.569       .  S
O801        C811   1.233       .  A
O801       Ni809   1.835   1_665  S
O802        C812   1.223       .  A
O803        C813   1.262       .  A
O803       Ni809   1.912   1_655  S
O804        C814   1.252       .  A
O805       Ni810   2.053   1_455  S
O806        C813   1.302       .  A
O806       Ni810   2.018       .  S
O807       Ni810   2.054   1_455  S
O808        C811   1.305   1_545  A
O808       Ni810   2.061       .  S
Ni809      Ni810   2.174   1_455  S
C811       C1160   1.559       .  S
C813       C1139   1.549   1_545  S
O815       Ni823   2.051   1_455  S
O816        C826   1.320       .  A
O816       Ni823   2.079       .  S
O817       Ni823   2.084   1_455  S
O818        C828   1.291       .  A
O818       Ni823   1.977       .  S
O819        C828   1.286       .  A
O819       Ni824   1.936   1_655  S
O820        C827   1.215       .  A
O821        C826   1.244       .  A
O821       Ni824   1.819   1_655  S
O822        C825   1.225       .  A
Ni823      Ni824   2.262   1_655  S
C829        C830   1.392       .  D
C829        C902   1.529   1_554  S
C829       C1025   1.509       .  S
C830        C945   1.509   1_554  S
C830       C1042   1.528       .  S
C831        C832   1.402       .  D
C831        C925   1.503   1_554  S
C831       C1032   1.546       .  S
C832        C952   1.523   1_554  S
C832        C995   1.549       .  S
C833        C834   1.381       .  D
C833       C1275   1.514   1_554  S
C833        C985   1.513       .  S
C834       C1295   1.521   1_554  S
C834       C1052   1.494       .  S
C835        C836   1.387       .  D
C835       C1212   1.503       .  S
C835        C972   1.523       .  S
C836       C1245   1.563       .  S
C836       C1075   1.530       .  S
C837        C838   1.390       .  D
C837        C892   1.517       .  S
C837       C1015   1.526       .  S
C838        C872   1.516       .  S
C838        C962   1.502       .  S
C839        C840   1.368       .  D
C839        C865   1.509       .  S
C839       C1065   1.506       .  S
C840        C845   1.497       .  S
C840       C1002   1.491       .  S
C841        C842   1.398       .  A
C841        C846   1.384       .  A
C841        H848   1.083       .  S
C842        C843   1.410       .  A
C843        C844   1.398       .  A
C843       Br850   1.898       .  S
C844        C845   1.405       .  A
C844        H849   1.082       .  S
C845        C846   1.416       .  A
C846       Br847   1.920       .  S
C851       C1212   1.405       .  A
C851       C1216   1.401       .  A
C851        H858   1.081       .  S
C852       C1195   1.503       .  S
C852       C1211   1.405       .  A
C852        C853   1.409       .  A
C853        C854   1.396       .  A
C853       Br860   1.905       .  S
C854        C855   1.405       .  A
C854        H859   1.084       .  S
C855        C856   1.418       .  A
C856       C1211   1.401       .  A
C856      Br1217   1.920       .  S
Br857      C1216   1.920       .  S
C861        C862   1.409       .  A
C861        C866   1.405       .  A
C861        H868   1.078       .  S
C862        C863   1.422       .  A
C863        C864   1.407       .  A
C863       Br870   1.916       .  S
C864        C865   1.402       .  A
C864        H869   1.082       .  S
C865        C866   1.402       .  A
C866       Br867   1.904       .  S
C871        C872   1.416       .  A
C871        C876   1.384       .  A
C871        H878   1.082       .  S
C872        C873   1.422       .  A
C873        C874   1.411       .  A
C873       Br880   1.920       .  S
C874        C875   1.409       .  A
C874        H879   1.083       .  S
C875        C876   1.395       .  A
C876       Br877   1.921       .  S
C881       C1242   1.395   1_545  A
C881        C886   1.381       .  A
C881        H888   1.083       .  S
C882       C1241   1.395       .  A
C882        C883   1.417       .  A
C883        C884   1.418       .  A
C883       Br890   1.918       .  S
C884        C885   1.418       .  A
C884        H889   1.073       .  S
C885       C1196   1.563       .  S
C885       C1246   1.401       .  A
C886       C1245   1.401       .  A
C886       Br887   1.914       .  S
C891        C892   1.410       .  A
C891        C896   1.397       .  A
C891        H898   1.083       .  S
C892        C893   1.411       .  A
C893        C894   1.413       .  A
C893       Br900   1.915       .  S
C894        C895   1.418       .  A
C894        H899   1.076       .  S
C895        C896   1.417       .  A
C896       Br897   1.925       .  S
C901        C902   1.408       .  A
C901        C906   1.391       .  A
C901        H908   1.074       .  S
C902        C903   1.431       .  A
C903        C904   1.408       .  A
C903       Br910   1.924   1_556  S
C904        C905   1.406       .  A
C904        H909   1.083       .  S
C905        C906   1.400       .  A
C906       Br907   1.901       .  S
C911        C912   1.400       .  A
C911       C1276   1.391       .  A
C911       H1278   1.080       .  S
C912        C913   1.430       .  A
C913        C914   1.410       .  A
C913       Br920   1.906       .  S
C914        C915   1.400       .  A
C914        H919   1.082       .  S
C915       C1193   1.514   1_556  S
C915       C1276   1.412       .  A
C916       C1271   1.391       .  A
C916       C1275   1.412       .  A
C916       Br917   1.893       .  S
H918       C1271   1.080       .  S
C921        C922   1.417       .  A
C921        C926   1.386       .  A
C921        H928   1.080       .  S
C922        C923   1.409       .  A
C923        C924   1.410       .  A
C923       Br930   1.917       .  S
C924        C925   1.410       .  A
C924        H929   1.080       .  S
C925        C926   1.401       .  A
C926       Br927   1.924   1_556  S
C931        C932   1.408       .  A
C931        C936   1.416       .  A
C931        H938   1.083       .  S
C932        C933   1.395       .  A
C933        C934   1.383   1_556  A
C933       Br940   1.904   1_556  S
C934        C935   1.414   1_554  A
C934        H939   1.082       .  S
C935       C1194   1.521   1_556  S
C935        C936   1.427       .  A
C936       Br937   1.919       .  S
C941        C942   1.413       .  A
C941        C946   1.419       .  A
C941        H948   1.081       .  S
C942        C943   1.403       .  A
C943        C944   1.381   1_556  A
C943       Br950   1.887   1_556  S
C944        C945   1.399   1_554  A
C944        H949   1.085       .  S
C945        C946   1.422       .  A
C946       Br947   1.915       .  S
C951        C952   1.403       .  A
C951        C956   1.404       .  A
C951        H958   1.076       .  S
C952        C953   1.405       .  A
C953        C954   1.403       .  A
C953       Br960   1.916       .  S
C954        C955   1.414       .  A
C954        H959   1.060       .  S
C955        C956   1.422       .  A
C956       Br957   1.913       .  S
C961        C962   1.411       .  A
C961        C966   1.411       .  A
C961        H968   1.083       .  S
C963        C964   1.384       .  A
C963       Br970   1.918       .  S
C964        C965   1.404       .  A
C964        H969   1.083       .  S
C966       Br967   1.919       .  S
C971        C972   1.408       .  A
C971        C976   1.412       .  A
C971        H978   1.082       .  S
C972        C973   1.409       .  A
C973        C974   1.393       .  A
C973      Br1340   1.897   1_545  S
C974        C975   1.401       .  A
C974        H979   1.077       .  S
C975        C976   1.423       .  A
C976       Br977   1.914       .  S
Br980      C1333   1.898       .  S
C981        C982   1.405       .  A
C981        C986   1.401       .  A
C981        H988   1.079       .  S
C982        C983   1.432       .  A
C983        C984   1.395       .  A
C983       Br990   1.925   1_545  S
C984        C985   1.400       .  A
C984        H989   1.085   1_545  S
C985        C986   1.414       .  A
C986       Br987   1.908       .  S
C991        C996   1.436       .  A
C991        H998   1.082       .  S
C992        C993   1.395       .  A
C993        C994   1.386   1_655  A
C993      Br1000   1.916       .  S
C994        H999   1.063   1_455  S
C995        C996   1.431       .  A
C996       Br997   1.914       .  S
C1001      C1002   1.412       .  A
C1001      C1006   1.404       .  A
C1001      H1008   1.082       .  S
C1002      C1003   1.406       .  A
C1003      C1004   1.378       .  A
C1003     Br1010   1.923       .  S
C1004      C1005   1.404       .  A
C1004      H1009   1.084       .  S
C1005      C1006   1.416       .  A
C1006     Br1007   1.919       .  S
C1011      C1016   1.396       .  A
C1011      H1018   1.079       .  S
C1012      C1013   1.421       .  A
C1013      C1014   1.403       .  A
C1013     Br1020   1.914       .  S
C1014      H1019   1.078       .  S
C1015      C1016   1.421       .  A
C1016     Br1017   1.919       .  S
C1021      C1022   1.412       .  A
C1021      C1026   1.399       .  A
C1021      H1028   1.077       .  S
C1022      C1023   1.424       .  A
C1023      C1024   1.408       .  A
C1023     Br1030   1.914       .  S
C1024      C1025   1.404       .  A
C1024      H1029   1.082       .  S
C1025      C1026   1.411       .  A
C1026     Br1027   1.921       .  S
C1031      C1032   1.429       .  A
C1031      C1036   1.399       .  A
C1031      H1038   1.076       .  S
C1033      C1034   1.402       .  A
C1033     Br1040   1.878       .  S
C1034      C1035   1.391       .  A
C1034      H1039   1.078       .  S
C1036     Br1037   1.923       .  S
C1041      C1042   1.419       .  A
C1041      C1046   1.383       .  A
C1041      H1048   1.081       .  S
C1042      C1043   1.424       .  A
C1043      C1044   1.409       .  A
C1043     Br1050   1.917       .  S
C1044      C1045   1.403       .  A
C1044      H1049   1.083       .  S
C1045      C1046   1.402       .  A
C1046     Br1047   1.922       .  S
C1051      C1052   1.415       .  A
C1051      C1056   1.417       .  A
C1051      H1058   1.083       .  S
C1052      C1053   1.400       .  A
C1053      C1054   1.371       .  A
C1053     Br1060   1.929   1_554  S
C1054      C1055   1.409       .  A
C1054      H1059   1.070       .  S
C1055      C1056   1.414       .  A
C1056     Br1057   1.919       .  S
C1061      C1062   1.413       .  A
C1061      C1066   1.401       .  A
C1061      H1068   1.076       .  S
C1062      C1063   1.414       .  A
C1063      C1064   1.398       .  A
C1063     Br1070   1.913       .  S
C1064      C1065   1.406       .  A
C1064      H1069   1.081       .  S
C1065      C1066   1.407       .  A
C1066     Br1067   1.919       .  S
C1071      C1072   1.408       .  A
C1071      C1076   1.419       .  A
C1071      H1078   1.078       .  S
C1072      C1073   1.399       .  A
C1073      C1074   1.381       .  A
C1073     Br1080   1.919       .  S
C1074      C1075   1.396       .  A
C1074      H1079   1.073       .  S
C1075      C1076   1.433       .  A
C1076     Br1437   1.908   1_545  S
Br1077     C1436   1.908       .  S
C1081      C1082   1.361       .  D
C1081      C1097   1.560       .  S
C1081      C1118   1.549       .  S
C1082      C1422   1.521       .  S
C1082      C1432   1.506       .  S
C1083      C1084   1.370       .  D
C1083      C1405   1.489       .  S
C1083      C1415   1.530       .  S
C1084      C1095   1.581       .  S
C1084      C1120   1.578       .  S
O1085      C1095   1.249       .  A
O1086      C1096   1.261       .  A
O1086     Ni1093   1.905       .  S
O1087      C1097   1.224       .  A
O1088      C1098   1.235       .  A
O1088     Ni1093   1.816       .  S
O1089      C1098   1.314       .  A
O1089     Ni1094   2.096       .  S
O1090     Ni1094   2.086       .  S
O1091      C1096   1.294       .  A
O1091     Ni1094   1.974       .  S
O1092     Ni1094   2.053       .  S
Ni1093    Ni1094   2.168       .  S
C1099      C1100   1.370       .  D
C1099      C1132   1.562       .  S
C1100      C1382   1.527       .  S
C1100      C1395   1.489       .  S
C1101      C1102   1.382       .  D
C1101      C1134   1.581       .  S
C1102      C1365   1.481       .  S
C1102      C1372   1.532       .  S
C1103      C1104   1.371       .  D
C1103      C1133   1.567       .  S
C1104      C1342   1.523       .  S
C1104      C1352   1.522       .  S
C1105      C1106   1.376       .  D
C1105      C1325   1.501       .  S
C1105      C1335   1.518       .  S
C1106      C1131   1.554       .  S
O1107      C1117   1.253       .  A
O1107     Ni1115   1.898       .  S
O1108      C1118   1.250       .  A
O1108     Ni1115   1.840       .  S
O1109      C1119   1.248       .  A
O1109     Ni1115   1.896       .  S
O1110      C1120   1.254       .  A
O1110     Ni1115   1.833       .  S
O1111      C1120   1.303       .  A
O1111     Ni1116   2.031       .  S
O1112      C1119   1.303       .  A
O1112     Ni1116   2.046       .  S
O1113      C1118   1.307       .  A
O1113     Ni1116   2.039       .  S
O1114      C1117   1.290       .  A
O1114     Ni1116   2.034       .  S
Ni1115    Ni1116   2.310       .  S
O1121      C1131   1.228       .  A
O1122      C1132   1.241       .  A
O1122     Ni1129   1.813       .  S
O1123      C1133   1.213       .  A
O1124      C1134   1.281       .  A
O1124     Ni1129   1.924       .  S
O1125      C1134   1.295       .  A
O1125     Ni1130   2.006       .  S
O1126     Ni1130   2.098       .  S
O1127      C1132   1.313       .  A
O1127     Ni1130   2.066       .  S
O1128     Ni1130   2.014       .  S
Ni1129    Ni1130   2.278       .  S
C1135      C1136   1.379       .  D
C1135      C1154   1.574       .  S
C1135      C1172   1.557       .  S
C1136      C1302   1.513       .  S
C1136      C1315   1.533       .  S
C1137      C1138   1.377       .  D
C1137      C1282   1.531       .  S
C1137      C1292   1.502       .  S
C1138      C1185   1.565       .  S
C1139      C1140   1.389       .  D
C1139      C1188   1.569       .  S
C1140      C1265   1.512       .  S
C1140      C1272   1.528       .  S
C1141      C1142   1.378       .  D
C1141      C1187   1.560       .  S
C1142      C1242   1.477       .  S
C1142      C1255   1.528       .  S
O1143      C1153   1.296       .  A
O1143     Ni1151   2.053       .  S
O1144      C1154   1.309       .  A
O1144     Ni1151   2.057       .  S
O1145      C1155   1.304       .  A
O1145     Ni1151   2.033       .  S
O1146      C1156   1.301       .  A
O1146     Ni1151   2.043       .  S
O1147      C1156   1.249       .  A
O1147     Ni1152   1.823       .  S
O1148      C1155   1.246       .  A
O1148     Ni1152   1.869       .  S
O1149      C1154   1.257       .  A
O1149     Ni1152   1.881       .  S
O1150      C1153   1.257       .  A
O1150     Ni1152   1.911       .  S
Ni1151    Ni1152   2.305       .  S
C1156      C1157   1.577       .  S
C1157      C1158   1.372       .  D
C1157      C1174   1.587       .  S
C1158      C1222   1.520       .  S
C1158      C1235   1.495       .  S
C1159      C1160   1.361       .  D
C1159      C1202   1.489       .  S
C1159      C1215   1.499       .  S
C1160      C1186   1.569       .  S
O1161      C1171   1.233       .  A
O1161     Ni1169   1.835   1_655  S
O1162      C1172   1.223       .  A
O1163      C1173   1.262       .  A
O1163     Ni1169   1.912   1_655  S
O1164      C1174   1.252       .  A
O1165     Ni1170   2.053   1_455  S
O1166      C1173   1.302       .  A
O1166     Ni1170   2.018       .  S
O1167     Ni1170   2.054   1_455  S
O1168      C1171   1.305       .  A
O1168     Ni1170   2.061       .  S
Ni1169    Ni1170   2.174   1_455  S
O1175     Ni1183   2.051   1_455  S
O1176      C1186   1.320       .  A
O1176     Ni1183   2.079       .  S
O1177     Ni1183   2.084   1_455  S
O1178      C1188   1.291       .  A
O1178     Ni1183   1.977       .  S
O1179      C1188   1.286       .  A
O1179     Ni1184   1.936   1_655  S
O1180      C1187   1.215       .  A
O1181      C1186   1.244       .  A
O1181     Ni1184   1.819   1_655  S
O1182      C1185   1.225       .  A
Ni1183    Ni1184   2.262   1_655  S
C1189      C1190   1.392       .  D
C1189      C1262   1.529   1_554  S
C1189      C1385   1.509       .  S
C1190      C1305   1.509   1_554  S
C1190      C1402   1.528       .  S
C1191      C1192   1.402       .  D
C1191      C1285   1.503   1_554  S
C1191      C1392   1.546       .  S
C1192      C1312   1.523   1_554  S
C1192      C1355   1.549       .  S
C1193      C1194   1.381       .  D
C1193      C1345   1.513       .  S
C1194      C1412   1.494       .  S
C1195      C1196   1.387       .  D
C1195      C1332   1.523       .  S
C1196      C1435   1.530       .  S
C1197      C1198   1.390       .  D
C1197      C1252   1.517       .  S
C1197      C1375   1.526       .  S
C1198      C1232   1.516       .  S
C1198      C1322   1.502       .  S
C1199      C1200   1.368       .  D
C1199      C1225   1.509       .  S
C1199      C1425   1.506       .  S
C1200      C1205   1.497       .  S
C1200      C1362   1.491       .  S
C1201      C1202   1.398       .  A
C1201      C1206   1.384       .  A
C1201      H1208   1.083       .  S
C1202      C1203   1.410       .  A
C1203      C1204   1.398       .  A
C1203     Br1210   1.898       .  S
C1204      C1205   1.405       .  A
C1204      H1209   1.082       .  S
C1205      C1206   1.416       .  A
C1206     Br1207   1.920       .  S
C1211      H1218   1.081       .  S
C1212      C1213   1.409   1_545  A
C1213      C1214   1.396       .  A
C1213     Br1220   1.905       .  S
C1214      C1215   1.405       .  A
C1214      H1219   1.084       .  S
C1215      C1216   1.417   1_565  A
C1221      C1222   1.409       .  A
C1221      C1226   1.405       .  A
C1221      H1228   1.078       .  S
C1222      C1223   1.422       .  A
C1223      C1224   1.407       .  A
C1223     Br1230   1.916       .  S
C1224      C1225   1.403       .  A
C1224      H1229   1.082       .  S
C1225      C1226   1.402       .  A
C1226     Br1227   1.904       .  S
C1231      C1232   1.416       .  A
C1231      C1236   1.384       .  A
C1231      H1238   1.082       .  S
C1232      C1233   1.422       .  A
C1233      C1234   1.411       .  A
C1233     Br1240   1.920       .  S
C1234      C1235   1.409       .  A
C1234      H1239   1.083       .  S
C1235      C1236   1.395       .  A
C1236     Br1237   1.921       .  S
C1241      C1246   1.381       .  A
C1241      H1248   1.083       .  S
C1242      C1243   1.417       .  A
C1243      C1244   1.418       .  A
C1243     Br1250   1.918       .  S
C1244      C1245   1.418   1_565  A
C1244      H1249   1.073       .  S
C1246     Br1247   1.914       .  S
C1251      C1252   1.410       .  A
C1251      C1256   1.397       .  A
C1251      H1258   1.083       .  S
C1252      C1253   1.411       .  A
C1253      C1254   1.413       .  A
C1253     Br1260   1.915       .  S
C1254      C1255   1.418       .  A
C1254      H1259   1.076       .  S
C1255      C1256   1.417       .  A
C1256     Br1257   1.925       .  S
C1261      C1262   1.408       .  A
C1261      C1266   1.391       .  A
C1261      H1268   1.074       .  S
C1262      C1263   1.431       .  A
C1263      C1264   1.408       .  A
C1263     Br1270   1.924   1_556  S
C1264      C1265   1.406       .  A
C1264      H1269   1.083       .  S
C1265      C1266   1.400       .  A
C1266     Br1267   1.901       .  S
C1271      C1272   1.400   1_545  A
C1272      C1273   1.430       .  A
C1273      C1274   1.410       .  A
C1273     Br1280   1.906       .  S
C1274      C1275   1.400   1_565  A
C1274      H1279   1.082       .  S
C1276     Br1277   1.893       .  S
C1281      C1282   1.417       .  A
C1281      C1286   1.386       .  A
C1281      H1288   1.080       .  S
C1282      C1283   1.409       .  A
C1283      C1284   1.410       .  A
C1283     Br1290   1.917       .  S
C1284      C1285   1.410       .  A
C1284      H1289   1.080       .  S
C1285      C1286   1.401       .  A
C1286     Br1287   1.924   1_556  S
C1291      C1292   1.408       .  A
C1291      C1296   1.416   1_565  A
C1291      H1298   1.083       .  S
C1292      C1293   1.395       .  A
C1293      C1294   1.383   1_556  A
C1293     Br1300   1.904   1_556  S
C1294      C1295   1.414   1_564  A
C1294      H1299   1.082       .  S
C1295      C1296   1.427       .  A
C1296     Br1297   1.919       .  S
C1301      C1302   1.413       .  A
C1301      C1306   1.419       .  A
C1301      H1308   1.081       .  S
C1302      C1303   1.403       .  A
C1303      C1304   1.381   1_556  A
C1303     Br1310   1.887   1_556  S
C1304      C1305   1.399   1_554  A
C1304      H1309   1.085       .  S
C1305      C1306   1.422       .  A
C1306     Br1307   1.915       .  S
C1311      C1312   1.403       .  A
C1311      C1316   1.403       .  A
C1311      H1318   1.076       .  S
C1312      C1313   1.405       .  A
C1313      C1314   1.402       .  A
C1313     Br1320   1.916       .  S
C1314      C1315   1.414       .  A
C1314      H1319   1.060       .  S
C1315      C1316   1.422       .  A
C1316     Br1317   1.913       .  S
C1321      C1322   1.411       .  A
C1321      C1326   1.411       .  A
C1321      H1328   1.083       .  S
C1323      C1324   1.384       .  A
C1323     Br1330   1.918       .  S
C1324      C1325   1.404       .  A
C1324      H1329   1.083       .  S
C1326     Br1327   1.919       .  S
C1331      C1332   1.408       .  A
C1331      C1336   1.412       .  A
C1331      H1338   1.082       .  S
C1332      C1333   1.409       .  A
C1333      C1334   1.393       .  A
C1334      C1335   1.401       .  A
C1334      H1339   1.077       .  S
C1335      C1336   1.423       .  A
C1336     Br1337   1.914       .  S
C1341      C1342   1.405       .  A
C1341      C1346   1.401       .  A
C1341      H1348   1.079       .  S
C1342      C1343   1.432       .  A
C1343      C1344   1.395       .  A
C1343     Br1350   1.925       .  S
C1344      C1345   1.400       .  A
C1344      H1349   1.085       .  S
C1345      C1346   1.414       .  A
C1346     Br1347   1.908       .  S
C1351      C1356   1.436       .  A
C1351      H1358   1.082       .  S
C1352      C1353   1.395       .  A
C1353      C1354   1.386   1_655  A
C1353     Br1360   1.916       .  S
C1354      H1359   1.063   1_455  S
C1355      C1356   1.431       .  A
C1356     Br1357   1.914       .  S
C1361      C1362   1.412       .  A
C1361      C1366   1.404       .  A
C1361      H1368   1.082       .  S
C1362      C1363   1.406       .  A
C1363      C1364   1.378       .  A
C1363     Br1370   1.923       .  S
C1364      C1365   1.404       .  A
C1364      H1369   1.084       .  S
C1365      C1366   1.416       .  A
C1366     Br1367   1.919       .  S
C1371      C1376   1.396       .  A
C1371      H1378   1.079       .  S
C1372      C1373   1.421       .  A
C1373      C1374   1.403       .  A
C1373     Br1380   1.914       .  S
C1374      H1379   1.078       .  S
C1375      C1376   1.421       .  A
C1376     Br1377   1.919       .  S
C1381      C1382   1.412       .  A
C1381      C1386   1.399       .  A
C1381      H1388   1.077       .  S
C1382      C1383   1.424       .  A
C1383      C1384   1.408       .  A
C1383     Br1390   1.914       .  S
C1384      C1385   1.404       .  A
C1384      H1389   1.082       .  S
C1385      C1386   1.411       .  A
C1386     Br1387   1.921       .  S
C1391      C1392   1.429       .  A
C1391      C1396   1.399       .  A
C1391      H1398   1.076       .  S
C1393      C1394   1.402       .  A
C1393     Br1400   1.878       .  S
C1394      C1395   1.391       .  A
C1394      H1399   1.078       .  S
C1396     Br1397   1.923       .  S
C1401      C1402   1.419       .  A
C1401      C1406   1.383       .  A
C1401      H1408   1.081       .  S
C1402      C1403   1.424       .  A
C1403      C1404   1.409       .  A
C1403     Br1410   1.917       .  S
C1404      C1405   1.403       .  A
C1404      H1409   1.083       .  S
C1405      C1406   1.402       .  A
C1406     Br1407   1.922       .  S
C1411      C1412   1.415       .  A
C1411      C1416   1.417       .  A
C1411      H1418   1.083       .  S
C1412      C1413   1.400       .  A
C1413      C1414   1.371       .  A
C1413     Br1420   1.929   1_554  S
C1414      C1415   1.409       .  A
C1414      H1419   1.070       .  S
C1415      C1416   1.414       .  A
C1416     Br1417   1.919       .  S
C1421      C1422   1.413       .  A
C1421      C1426   1.401       .  A
C1421      H1428   1.076       .  S
C1422      C1423   1.414       .  A
C1423      C1424   1.398       .  A
C1423     Br1430   1.913       .  S
C1424      C1425   1.406       .  A
C1424      H1429   1.081       .  S
C1425      C1426   1.407       .  A
C1426     Br1427   1.919       .  S
C1431      C1432   1.408       .  A
C1431      C1436   1.419       .  A
C1431      H1438   1.078       .  S
C1432      C1433   1.399       .  A
C1433      C1434   1.381       .  A
C1433     Br1440   1.919       .  S
C1434      C1435   1.396       .  A
C1434      H1439   1.073       .  S
C1435      C1436   1.433       .  A
