geometry optimzed in LAMMPS
_audit_creation_date              2020-11-30 
_audit_creation_method            'lammps2cif' 
_symmetry_space_group_name_H-M    'P1' 
_symmetry_Int_Tables_number       1 
_symmetry_cell_setting            triclinic 
loop_ 
_symmetry_equiv_pos_as_xyz 
  x,y,z 
_cell_length_a                    45.1255059 
_cell_length_b                    51.242591987859605 
_cell_length_c                    42.72453834964292 
_cell_angle_alpha                 89.65989382530613 
_cell_angle_beta                  91.13283558277321 
_cell_angle_gamma                 89.88899061225513 
loop_ 
_atom_site_label 
_atom_site_type_symbol 
_atom_site_fract_x 
_atom_site_fract_y 
_atom_site_fract_z 
_atom_site_charge 
In1        In  0.81970619  0.13081248  0.40788550     1.36900
C2          C  0.87617234  0.13847849  0.42356163     0.78200
O3          O  0.81294661  0.17418536  0.40578802    -0.60200
O4          O  0.79049144  0.15279990  0.44072377    -0.51100
C5          C  0.79616607  0.12835645  0.35040950     0.70900
O6          O  0.82321093  0.13293683  0.35567053    -0.46000
C7          C  0.81444467  0.08259507  0.43060839     0.75600
O8          O  0.86739962  0.13638634  0.39548426    -0.57900
O9          O  0.80046128  0.10171639  0.44155657    -0.48000
O10         O  0.85605779  0.13699135  0.44344351    -0.54300
C11         C  0.79593505  0.17480299  0.42876738     0.85800
O12         O  0.78110557  0.12457947  0.37460902    -0.56200
O13         O  0.82994093  0.08794973  0.40725624    -0.59500
In14       In  0.16319503  0.13053381  0.45104041     1.36900
C15         C  0.10691830  0.13832698  0.43418504     0.78200
O16         O  0.19267155  0.10781407  0.41940751    -0.60200
O17         O  0.18048309  0.14643350  0.40603083    -0.51100
C18         C  0.18338508  0.17114961  0.48336593     0.70900
O19         O  0.15633337  0.16542327  0.48152115    -0.46000
C20         C  0.16614778  0.08637699  0.48411305     0.75600
O21         O  0.11496794  0.13412945  0.46218214    -0.57900
O22         O  0.17964848  0.10676066  0.49240737    -0.48000
O23         O  0.12761916  0.13867825  0.41491679    -0.54300
C24         C  0.19418868  0.12580473  0.39926808     0.85800
O25         O  0.20021711  0.15609104  0.46869880    -0.56200
O26         O  0.15143856  0.08856339  0.45885295    -0.59500
In27       In  0.32164151  0.36507683  0.61700362     1.36900
C28         C  0.37889578  0.35393797  0.61429295     0.78200
O29         O  0.29446824  0.32868030  0.61064102    -0.60200
O30         O  0.31596470  0.34438185  0.57117331    -0.51100
C31         C  0.30090555  0.36694547  0.67480424     0.70900
O32         O  0.32798546  0.36385545  0.66923463    -0.46000
C33         C  0.31007579  0.41296932  0.59605398     0.75600
O34         O  0.36163455  0.34161613  0.63184266    -0.57900
O35         O  0.29554483  0.39332473  0.58702423    -0.48000
O36         O  0.36690933  0.37206664  0.59849003    -0.54300
C37         C  0.29974014  0.32670616  0.58190994     0.85800
O38         O  0.28436604  0.36916788  0.65077948    -0.56200
O39         O  0.32995172  0.40820283  0.61641078    -0.59500
In40       In  0.66228908  0.36632062  0.56887374     1.36900
C41         C  0.60375362  0.36089364  0.56447856     0.78200
O42         O  0.66015677  0.38647611  0.61557057    -0.60200
O43         O  0.69559784  0.36028395  0.60828853    -0.51100
C44         C  0.68514665  0.32158689  0.54924708     0.70900
O45         O  0.65989421  0.32309310  0.56119643    -0.46000
C46         C  0.67443079  0.40693670  0.53208887     0.75600
O47         O  0.61870371  0.37170767  0.54357414    -0.57900
O48         O  0.66867181  0.40934585  0.56067944    -0.48000
O49         O  0.61876611  0.35229321  0.58750779    -0.54300
C50         C  0.68290886  0.37545775  0.62688332     0.85800
O51         O  0.69897337  0.34294664  0.54774505    -0.56200
O52         O  0.67530105  0.38371855  0.52270258    -0.59500
In53       In  0.80745560  0.35239999  0.90639665     1.36900
C54         C  0.86652403  0.35131052  0.90600880     0.78200
O55         O  0.79669268  0.33099872  0.86180306    -0.60200
O56         O  0.78351705  0.37055370  0.86462310    -0.51100
C57         C  0.78609354  0.31216633  0.93886361     0.70900
O58         O  0.81338840  0.31566094  0.93498063    -0.46000
C59         C  0.79489500  0.39716763  0.93443436     0.75600
O60         O  0.85223434  0.35717265  0.93002119    -0.57900
O61         O  0.81171706  0.39592090  0.91125818    -0.48000
O62         O  0.85065740  0.34562655  0.88247359    -0.54300
C63         C  0.78437592  0.35015960  0.84833645     0.85800
O64         O  0.76962369  0.32921016  0.92605802    -0.56200
O65         O  0.78384084  0.37568558  0.94258582    -0.59500
In66       In  0.15288603  0.37725621  0.93490257     1.36900
C67         C  0.09530357  0.37089668  0.94416741     0.78200
O68         O  0.15758112  0.33546302  0.95125166    -0.60200
O69         O  0.19252641  0.36170759  0.96167702    -0.51100
C70         C  0.17319634  0.37279604  0.87709679     0.70900
O71         O  0.14774194  0.36529818  0.88459942    -0.46000
C72         C  0.15705738  0.42709155  0.95211554     0.75600
O73         O  0.10645099  0.37151250  0.91735588    -0.57900
O74         O  0.16293436  0.40841239  0.97053438    -0.48000
O75         O  0.11370841  0.37340822  0.96651855    -0.54300
C76         C  0.18265904  0.33884890  0.96402609     0.85800
O77         O  0.18843809  0.38238299  0.89924622    -0.56200
O78         O  0.14955912  0.42029795  0.92484961    -0.59500
In79       In  0.28471750  0.13172162  0.11142137     1.36900
C80         C  0.34351162  0.13250419  0.11873046     0.78200
O81         O  0.27222330  0.15845360  0.15047446    -0.60200
O82         O  0.27042872  0.11765317  0.15871474    -0.51100
C83         C  0.25426920  0.16681171  0.07764133     0.70900
O84         O  0.28104399  0.16995982  0.08580293    -0.46000
C85         C  0.27542360  0.08758496  0.08014351     0.75600
O86         O  0.32993660  0.14659585  0.09880877    -0.57900
O87         O  0.25980028  0.09423026  0.10289069    -0.48000
O88         O  0.32701238  0.11834500  0.13507412    -0.54300
C89         C  0.26678369  0.14027936  0.16940501     0.85800
O90         O  0.24313891  0.14551877  0.08641664    -0.56200
O91         O  0.29521904  0.10376811  0.07304206    -0.59500
In92       In  0.63176725  0.13985458  0.09474345     1.36900
C93         C  0.57299341  0.14455936  0.08928608     0.78200
O94         O  0.63375752  0.18234578  0.08158009    -0.60200
O95         O  0.66709239  0.15739310  0.06445688    -0.51100
C96         C  0.65909667  0.14192882  0.15081828     0.70900
O97         O  0.63574601  0.15444768  0.14431007    -0.46000
C98         C  0.63653680  0.09171296  0.07211016     0.75600
O99         O  0.58626693  0.14116127  0.11525103    -0.57900
O100        O  0.64446364  0.11172843  0.05716295    -0.48000
O101        O  0.58976916  0.14554659  0.06609100    -0.54300
C102        C  0.65663168  0.18018251  0.06543545     0.85800
O103        O  0.66871297  0.12850722  0.12859226    -0.56200
O104        O  0.62610556  0.09630084  0.09867472    -0.59500
In105      In  0.78365370  0.86113922  0.57632533     1.36900
C106        C  0.84143059  0.85151067  0.57449522     0.78200
O107        O  0.76923032  0.81922484  0.57841265    -0.60200
O108        O  0.76369746  0.83971421  0.53535959    -0.51100
C109        C  0.75586881  0.86589379  0.63063840     0.70900
O110        O  0.78148418  0.85628193  0.62874598    -0.46000
C111        C  0.77978514  0.90744028  0.54767649     0.75600
O112        O  0.82980300  0.86400113  0.59648446    -0.57900
O113        O  0.75998473  0.89028373  0.54483810    -0.48000
O114        O  0.82345862  0.84370935  0.55367076    -0.54300
C115        C  0.76078648  0.81851975  0.55014408     0.85800
O116        O  0.74463407  0.87328772  0.60489097    -0.56200
O117        O  0.80124729  0.90103299  0.56535612    -0.59500
In118      In  0.13080136  0.85209123  0.60146893     1.36900
C119        C  0.07236756  0.85554296  0.60751664     0.78200
O120        O  0.13799506  0.83546465  0.64968168    -0.60200
O121        O  0.16665804  0.86564590  0.63459638    -0.51100
C122        C  0.15149753  0.80793423  0.57742905     0.70900
O123        O  0.12561354  0.81006023  0.58759530    -0.46000
C124        C  0.13986603  0.89477238  0.56703885     0.75600
O125        O  0.08418542  0.84717921  0.58303842    -0.57900
O126        O  0.13726554  0.89531366  0.59632625    -0.48000
O127        O  0.09040985  0.86219731  0.62882158    -0.54300
C128        C  0.15973550  0.84998566  0.65610935     0.85800
O129        O  0.16675860  0.82848743  0.57924600    -0.56200
O130        O  0.13807521  0.87232710  0.55527600    -0.59500
In131      In  0.29105022  0.62233215  0.42997899     1.36900
C132        C  0.35012157  0.62378670  0.43162523     0.78200
O133        O  0.29368132  0.66513878  0.44098236    -0.60200
O134        O  0.25834180  0.64355964  0.46003376    -0.51100
C135        C  0.25937453  0.62503632  0.37690902     0.70900
O136        O  0.28584326  0.63278238  0.37904284    -0.46000
C137        C  0.28454858  0.57486798  0.45427887     0.75600
O138        O  0.33531723  0.62257453  0.40628847    -0.57900
O139        O  0.28160065  0.59542120  0.47002025    -0.48000
O140        O  0.33472348  0.62423635  0.45590349    -0.54300
C141        C  0.27086539  0.66538241  0.45741423     0.85800
O142        O  0.24934437  0.61547674  0.40172650    -0.56200
O143        O  0.29064111  0.57856909  0.42594115    -0.59500
In144      In  0.63679948  0.63141330  0.38998829     1.36900
C145        C  0.57833559  0.62397676  0.38704658     0.78200
O146        O  0.63829741  0.64975247  0.34212435    -0.60200
O147        O  0.66989258  0.62036740  0.35374528    -0.51100
C148        C  0.65825284  0.67511061  0.41476132     0.70900
O149        O  0.63249623  0.67347847  0.40304369    -0.46000
C150        C  0.65016569  0.59138521  0.42760520     0.75600
O151        O  0.59083858  0.63847088  0.40696127    -0.57900
O152        O  0.64333839  0.61361979  0.43754162    -0.48000
O153        O  0.59570399  0.61344263  0.36814989    -0.54300
C154        C  0.66023142  0.63652834  0.33361344     0.85800
O155        O  0.67330918  0.65436421  0.41362081    -0.56200
O156        O  0.65090970  0.58962723  0.39818847    -0.59500
In157      In  0.31198862  0.87506958  0.91670596     1.36900
C158        C  0.36922020  0.87151544  0.90240595     0.78200
O159        O  0.29262515  0.89948492  0.87746582    -0.60200
O160        O  0.28796539  0.85832228  0.87493821    -0.51100
C161        C  0.28754456  0.83342364  0.94357499     0.70900
O162        O  0.31050461  0.83218796  0.92743188    -0.46000
C163        C  0.30946790  0.91544468  0.95585047     0.75600
O164        O  0.35005535  0.88120730  0.88393501    -0.57900
O165        O  0.29019845  0.91167833  0.93461091    -0.48000
O166        O  0.35911095  0.86358187  0.92801221    -0.54300
C167        C  0.28286760  0.88020898  0.86226197     0.85800
O168        O  0.27705386  0.85610157  0.94635605    -0.56200
O169        O  0.32948740  0.89835676  0.95744506    -0.59500
In170      In  0.65769314  0.87449594  0.91641135     1.36900
C171        C  0.59993401  0.86509881  0.92192367     0.78200
O172        O  0.69278486  0.86019307  0.95043795    -0.60200
O173        O  0.66718449  0.83189601  0.92625119    -0.51100
C174        C  0.68587754  0.87474547  0.86219128     0.70900
O175        O  0.66096456  0.86406044  0.86540462    -0.46000
C176        C  0.65708195  0.92377241  0.93610483     0.75600
O177        O  0.61735190  0.86709875  0.94517038    -0.57900
O178        O  0.64901239  0.91739007  0.90880735    -0.48000
O179        O  0.61212554  0.86736858  0.89575358    -0.54300
C180        C  0.68783255  0.83636909  0.94577224     0.85800
O181        O  0.69618283  0.88534824  0.88656557    -0.56200
O182        O  0.66586910  0.90501800  0.95314480    -0.59500
In183      In  0.80328000  0.62448285  0.07132837     1.36900
C184        C  0.86042910  0.62861500  0.08752381     0.78200
O185        O  0.78990832  0.64001478  0.11841114    -0.60200
O186        O  0.77127513  0.60437723  0.10284959    -0.51100
C187        C  0.77322130  0.66134815  0.03952902     0.70900
O188        O  0.79550142  0.66634965  0.05665868    -0.46000
C189        C  0.80685871  0.58365283  0.03333131     0.75600
O190        O  0.84760057  0.64434040  0.06894572    -0.57900
O191        O  0.79480255  0.58254390  0.05965538    -0.48000
O192        O  0.84402609  0.61088553  0.09794900    -0.54300
C193        C  0.77302317  0.62110066  0.12419765     0.85800
O194        O  0.76620262  0.63760454  0.03885396    -0.56200
O195        O  0.81717211  0.60573490  0.02632235    -0.59500
In196      In  0.14623363  0.65167681  0.09517113     1.36900
C197        C  0.08804637  0.65692273  0.08742859     0.78200
O198        O  0.15008825  0.69528938  0.09261997    -0.60200
O199        O  0.17125559  0.67286799  0.05783292    -0.51100
C200        C  0.17849934  0.65151926  0.14796078     0.70900
O201        O  0.15087535  0.65540786  0.14753612    -0.46000
C202        C  0.15104183  0.60235239  0.07635429     0.75600
O203        O  0.10031301  0.65495510  0.11414280    -0.57900
O204        O  0.16157818  0.62122123  0.06108999    -0.48000
O205        O  0.10559011  0.65680368  0.06488344    -0.54300
C206        C  0.16561848  0.69525346  0.06842239     0.85800
O207        O  0.18954853  0.64812842  0.12144711    -0.56200
O208        O  0.13867187  0.60870360  0.10132005    -0.59500
C209        C  0.94192866  0.65101729  0.09152725     0.19300
C210        C  0.95920760  0.66611682  0.07137890    -0.18800
C211        C  0.98990998  0.66764221  0.07577278    -0.11000
C212        C  0.00404215  0.65405305  0.10059083     0.21600
C213        C  0.98668159  0.63974370  0.12144416    -0.20400
C214        C  0.95595542  0.63816960  0.11702072    -0.11200
C215        C  0.03668406  0.65453142  0.10562578    -0.15400
C216        C  0.05577300  0.65872306  0.08238313    -0.29200
C217        C  0.90948566  0.64941192  0.08512289    -0.03500
C218        C  0.89210078  0.63034192  0.09625796    -0.40000
H219        H  0.94893522  0.67658495  0.05189364     0.12700
H220        H  0.00234986  0.67968206  0.05986383     0.12400
H221        H  0.99698602  0.62947060  0.14106042     0.11800
H222        H  0.94343603  0.62708864  0.13379452     0.12000
H223        H  0.04536058  0.64961567  0.12884501     0.14800
H224        H  0.04777816  0.66196264  0.05856734     0.13500
H225        H  0.89974878  0.66384214  0.06922143     0.11200
H226        H  0.90116971  0.61502266  0.11121418     0.13200
C227        C  0.71692452  0.76903575  0.97365991     0.19300
C228        C  0.70382326  0.74432515  0.97613411    -0.18800
C229        C  0.71841198  0.72396539  0.99207468    -0.11000
C230        C  0.74683453  0.72776098  0.00550983     0.21600
C231        C  0.76007184  0.75242023  0.00269518    -0.20400
C232        C  0.74543725  0.77279231  0.98681666    -0.11200
C233        C  0.76315876  0.70689728  0.02319823    -0.15400
C234        C  0.75646814  0.68134036  0.02154738    -0.29200
C235        C  0.70024747  0.79021340  0.95701935    -0.03500
C236        C  0.70513871  0.81575390  0.96203414    -0.40000
H237        H  0.68191831  0.74088353  0.96618702     0.12700
H238        H  0.70695063  0.70557238  0.99422020     0.12400
H239        H  0.78194470  0.75591830  0.01269030     0.11800
H240        H  0.75674779  0.79127838  0.98464306     0.12000
H241        H  0.78195146  0.71281933  0.03778597     0.14800
H242        H  0.73855044  0.67451356  0.00649036     0.13500
H243        H  0.68240183  0.78455379  0.94101123     0.11200
H244        H  0.72188399  0.82200748  0.97890837     0.13200
C245        C  0.20578205  0.74348185  0.01373241     0.19300
C246        C  0.22667640  0.74014729  0.99017277    -0.18800
C247        C  0.24072554  0.76162408  0.97670233    -0.11000
C248        C  0.23424178  0.78713100  0.98659959     0.21600
C249        C  0.21268934  0.79054785  0.00945897    -0.20400
C250        C  0.19858263  0.76905425  0.02290756    -0.11200
C251        C  0.24866811  0.81064426  0.97307268    -0.15400
C252        C  0.27425511  0.80990356  0.95745741    -0.29200
C253        C  0.19240265  0.71972355  0.02792826    -0.03500
C254        C  0.17647478  0.71965104  0.05423216    -0.40000
H255        H  0.23235321  0.72075607  0.98224365     0.12700
H256        H  0.25628597  0.75800885  0.95831868     0.12400
H257        H  0.20684160  0.80997319  0.01711974     0.11800
H258        H  0.18205016  0.77279152  0.04025896     0.12000
H259        H  0.23802757  0.82942233  0.97658869     0.14800
H260        H  0.28606344  0.79168419  0.95447686     0.13500
H261        H  0.19696335  0.70113441  0.01684015     0.11200
H262        H  0.17181638  0.73757420  0.06651586     0.13200
C263        C  0.51618856  0.85863532  0.90407668     0.19300
C264        C  0.49794935  0.86851472  0.87979614    -0.18800
C265        C  0.46712076  0.86911923  0.88268027    -0.11000
C266        C  0.45378156  0.85949245  0.90996439     0.21600
C267        C  0.47206116  0.84869140  0.93369846    -0.20400
C268        C  0.50285282  0.84815599  0.93082254    -0.11200
C269        C  0.42125520  0.86072314  0.91532400    -0.15400
C270        C  0.40087395  0.86995068  0.89460356    -0.29200
C271        C  0.54890746  0.86004830  0.90086697    -0.03500
C272        C  0.56785599  0.86099043  0.92556237    -0.40000
H273        H  0.50764971  0.87646778  0.85880415     0.12700
H274        H  0.45421023  0.87753552  0.86362236     0.12400
H275        H  0.46249014  0.84082121  0.95480416     0.11800
H276        H  0.51602271  0.83949611  0.94959569     0.12000
H277        H  0.41367956  0.85392920  0.93795543     0.14800
H278        H  0.40704888  0.87691016  0.87168068     0.10300
H279        H  0.55755192  0.86230215  0.87743901     0.11200
H280        H  0.55973188  0.86014393  0.94926113     0.13200
C281        C  0.71025480  0.62823407  0.26233522     0.19300
C282        C  0.72386806  0.60660658  0.24864426    -0.18800
C283        C  0.73846615  0.60915856  0.22025336    -0.11000
C284        C  0.74000148  0.63355075  0.20509614     0.21600
C285        C  0.72711150  0.65533741  0.21918771    -0.20400
C286        C  0.71220113  0.65273157  0.24743440    -0.11200
C287        C  0.75577153  0.63693916  0.17519821    -0.15400
C288        C  0.75689331  0.61803786  0.15360073    -0.29200
C289        C  0.69557880  0.62472832  0.29286206    -0.03500
C290        C  0.67359480  0.64019571  0.30271010    -0.40000
H291        H  0.72315250  0.58764018  0.25994002     0.12700
H292        H  0.74903092  0.59211799  0.21057124     0.12400
H293        H  0.72845739  0.67439877  0.20821361     0.11800
H294        H  0.70287307  0.67002397  0.25782768     0.12000
H295        H  0.76574708  0.65578342  0.17032299     0.14800
H296        H  0.74532303  0.59974912  0.15724935     0.13500
H297        H  0.70265302  0.60832296  0.30744945     0.11200
H298        H  0.66493746  0.65580236  0.28786954     0.13200
C299        C  0.23404136  0.64199245  0.29252134     0.19300
C300        C  0.24922612  0.64686143  0.26478015    -0.18800
C301        C  0.23379236  0.65071020  0.23646801    -0.11000
C302        C  0.20260094  0.64967629  0.23521443     0.21600
C303        C  0.18736591  0.64552396  0.26315223    -0.20400
C304        C  0.20283476  0.64171606  0.29152112    -0.11200
C305        C  0.18513509  0.65282090  0.20547277    -0.15400
C306        C  0.19678965  0.65038971  0.17687754    -0.29200
C307        C  0.25165071  0.63844009  0.32199944    -0.03500
C308        C  0.24115599  0.62722984  0.34803811    -0.40000
H309        H  0.27322091  0.64767936  0.26498750     0.12700
H310        H  0.24655557  0.65478271  0.21589187     0.12400
H311        H  0.16336178  0.64504097  0.26300903     0.11800
H312        H  0.19018554  0.63897779  0.31250436     0.12000
H313        H  0.16139273  0.65597725  0.20719418     0.14800
H314        H  0.22012297  0.64620340  0.17413981     0.13500
H315        H  0.27455051  0.64500478  0.32207109     0.11200
H316        H  0.21880500  0.61954923  0.34857158     0.13200
C317        C  0.49541594  0.62759605  0.40711903     0.19300
C318        C  0.48030699  0.63314652  0.43468767    -0.18800
C319        C  0.44937001  0.63222388  0.43541400    -0.11000
C320        C  0.43267794  0.62565408  0.40838924     0.21600
C321        C  0.44783275  0.62030750  0.38073479    -0.20400
C322        C  0.47880972  0.62122678  0.38002539    -0.11200
C323        C  0.39960913  0.62487031  0.40764244    -0.15400
C324        C  0.38281304  0.62463781  0.43335330    -0.29200
C325        C  0.52823195  0.63022680  0.40732315    -0.03500
C326        C  0.54601264  0.61974440  0.38578334    -0.40000
H327        H  0.49251220  0.63848299  0.45578159     0.12700
H328        H  0.43888277  0.63725536  0.45706517     0.12400
H329        H  0.43561901  0.61552388  0.35945452     0.11800
H330        H  0.48944652  0.61757843  0.35802797     0.12000
H331        H  0.38857912  0.62393738  0.38482273     0.14800
H332        H  0.39288437  0.62472876  0.45656660     0.13500
H333        H  0.53828912  0.64117146  0.42648419     0.11200
H334        H  0.53706083  0.60769294  0.36711029     0.13200
C335        C  0.24325762  0.86410794  0.78366918     0.19300
C336        C  0.23327984  0.84078989  0.76996366    -0.18800
C337        C  0.21821729  0.84103241  0.74108193    -0.11000
C338        C  0.21277959  0.86470872  0.72519607     0.21600
C339        C  0.22342106  0.88795482  0.73833704    -0.20400
C340        C  0.23839133  0.88775401  0.76730654    -0.11200
C341        C  0.19672690  0.86573519  0.69460619    -0.15400
C342        C  0.17566692  0.84843155  0.68642085    -0.29200
C343        C  0.25893108  0.86254307  0.81464637    -0.03500
C344        C  0.26703584  0.88329696  0.83196522    -0.40000
H345        H  0.23707974  0.82225046  0.78170101     0.12700
H346        H  0.21121930  0.82262896  0.73111483     0.12400
H347        H  0.21985831  0.90639076  0.72628426     0.11800
H348        H  0.24616548  0.90618558  0.77635988     0.12000
H349        H  0.20141838  0.88193979  0.67894058     0.14800
H350        H  0.16928794  0.83308896  0.70254673     0.13500
H351        H  0.26391546  0.84315166  0.82381147     0.11200
H352        H  0.26237617  0.90303945  0.82416688     0.13200
C353        C  0.20143988  0.75756185  0.53723355     0.19300
C354        C  0.22448846  0.76043796  0.51597596    -0.18800
C355        C  0.23553905  0.73893573  0.49995067    -0.11000
C356        C  0.22412760  0.71376090  0.50531044     0.21600
C357        C  0.20121135  0.71086502  0.52685633    -0.20400
C358        C  0.19002573  0.73245329  0.54275793    -0.11200
C359        C  0.23524449  0.69009588  0.48904642    -0.15400
C360        C  0.26021463  0.68943066  0.47230285    -0.29200
C361        C  0.19007877  0.78127259  0.55294371    -0.03500
C362        C  0.16259653  0.78330187  0.56430110    -0.40000
H363        H  0.23366215  0.77955827  0.51127555     0.12700
H364        H  0.25269308  0.74245522  0.48319917     0.12400
H365        H  0.19202617  0.69175859  0.53158634     0.11800
H366        H  0.17276864  0.72928654  0.55956121     0.12000
H367        H  0.22267640  0.67216404  0.49168249     0.14800
H368        H  0.27386123  0.70660935  0.46961452     0.13500
H369        H  0.20432786  0.79835819  0.55340236     0.11200
H370        H  0.14733782  0.76700182  0.56299159     0.13200
C371        C  0.70747305  0.86358844  0.77627469     0.19300
C372        C  0.69128706  0.85959475  0.74832464    -0.18800
C373        C  0.70549883  0.85927295  0.71952066    -0.11000
C374        C  0.73637223  0.86278504  0.71808806     0.21600
C375        C  0.75266509  0.86611408  0.74607847    -0.20400
C376        C  0.73844339  0.86658057  0.77486425    -0.11200
C377        C  0.75242776  0.86176686  0.68806271    -0.15400
C378        C  0.73978648  0.86800789  0.66023327    -0.29200
C379        C  0.69143306  0.86367491  0.80638800    -0.03500
C380        C  0.70213015  0.87496897  0.83260641    -0.40000
H381        H  0.66751220  0.85677108  0.74876454     0.12700
H382        H  0.69230132  0.85570899  0.69857563     0.12400
H383        H  0.77652253  0.86835688  0.74566948     0.11800
H384        H  0.75194117  0.86872751  0.79587380     0.12000
H385        H  0.77570846  0.85626484  0.68901006     0.14800
H386        H  0.71709179  0.87501662  0.65888507     0.13500
H387        H  0.66958893  0.85477800  0.80672784     0.11200
H388        H  0.72322422  0.88505877  0.83262330     0.13200
C389        C  0.70680482  0.72519491  0.45897231     0.19300
C390        C  0.72833009  0.72298917  0.48300493    -0.18800
C391        C  0.73877672  0.74515028  0.49862492    -0.11000
C392        C  0.72800374  0.77008001  0.49030566     0.21600
C393        C  0.70723511  0.77238283  0.46558965    -0.20400
C394        C  0.69664890  0.75021964  0.45010599    -0.11200
C395        C  0.73889583  0.79412190  0.50591508    -0.15400
C396        C  0.74914529  0.79451769  0.53566955    -0.29200
C397        C  0.69588064  0.70107124  0.44342831    -0.03500
C398        C  0.66929835  0.69950578  0.42877707    -0.40000
H399        H  0.73691763  0.70401003  0.48991094     0.12700
H400        H  0.75561810  0.74269559  0.51678248     0.12400
H401        H  0.69906501  0.79141304  0.45832091     0.11800
H402        H  0.68092210  0.75289170  0.43092711     0.12000
H403        H  0.73767485  0.81228983  0.49267771     0.14800
H404        H  0.74903125  0.77692714  0.54993238     0.13500
H405        H  0.70955366  0.68362938  0.44546144     0.11200
H406        H  0.65448715  0.71619342  0.42791103     0.13200
C407        C  0.98809775  0.84949747  0.59194681     0.19300
C408        C  0.97090577  0.84230467  0.56567460    -0.18800
C409        C  0.94001565  0.84406660  0.56592285    -0.11000
C410        C  0.92548813  0.85288105  0.59276089     0.21600
C411        C  0.94264901  0.85976343  0.61917047    -0.20400
C412        C  0.97354382  0.85800082  0.61892301    -0.11200
C413        C  0.89277172  0.85614047  0.59404928    -0.15400
C414        C  0.87348316  0.84661565  0.57263749    -0.29200
C415        C  0.02093189  0.84783039  0.58986542    -0.03500
C416        C  0.04010153  0.85751423  0.61130265    -0.40000
H417        H  0.98145344  0.83566168  0.54458785     0.12700
H418        H  0.92795077  0.83901598  0.54474888     0.12400
H419        H  0.93209250  0.86658323  0.64016975     0.11800
H420        H  0.98559724  0.86326077  0.64002106     0.12000
H421        H  0.88411838  0.86696100  0.61369792     0.14800
H422        H  0.88090378  0.83514458  0.55307930     0.13500
H423        H  0.02981832  0.83855225  0.56922812     0.11200
H424        H  0.03249904  0.86718868  0.63212084     0.13200
C425        C  0.65973403  0.98410000  0.98996744     0.19300
C426        C  0.65986389  0.98687905  0.02265075    -0.18800
C427        C  0.65630588  0.01139389  0.03631464    -0.11000
C428        C  0.65262201  0.03382249  0.01747686     0.21600
C429        C  0.65327972  0.03116820  0.98481399    -0.20400
C430        C  0.65674068  0.00663304  0.97113803    -0.11200
C431        C  0.64925576  0.06036649  0.03089104    -0.15400
C432        C  0.63930644  0.06497617  0.05984574    -0.29200
C433        C  0.66302155  0.95742870  0.97676843    -0.03500
C434        C  0.65566562  0.95098769  0.94710779    -0.40000
H435        H  0.66256628  0.96994245  0.03774695     0.12700
H436        H  0.65698031  0.01265177  0.06157099     0.12400
H437        H  0.65101722  0.04817822  0.96976683     0.11800
H438        H  0.65744628  0.00561199  0.94590999     0.12000
H439        H  0.65441273  0.07688826  0.01588935     0.14800
H440        H  0.63256200  0.04901842  0.07487220     0.13500
H441        H  0.67044101  0.94204923  0.99273611     0.11200
H442        H  0.64709021  0.96549609  0.93073207     0.13200
C443        C  0.28891257  0.98035683  0.99523631     0.19300
C444        C  0.26235484  0.99290136  0.00295285    -0.18800
C445        C  0.26278882  0.01643124  0.01949614    -0.11000
C446        C  0.28992737  0.02802848  0.02819075     0.21600
C447        C  0.31641528  0.01557517  0.02029516    -0.20400
C448        C  0.31599246  0.99196544  0.00415604    -0.11200
C449        C  0.29171523  0.05368354  0.04399285    -0.15400
C450        C  0.27115489  0.06265375  0.06359217    -0.29200
C451        C  0.28779636  0.95620774  0.97612368    -0.03500
C452        C  0.30952612  0.93819255  0.97680920    -0.40000
H453        H  0.24122231  0.98455196  0.99596028     0.12700
H454        H  0.24195934  0.02584940  0.02456995     0.12400
H455        H  0.33759181  0.02428528  0.02642894     0.11800
H456        H  0.33693743  0.98340228  0.99778804     0.12000
H457        H  0.31177989  0.06501929  0.04073897     0.14800
H458        H  0.25183398  0.05099431  0.06896097     0.13500
H459        H  0.26841251  0.95312964  0.96110055     0.11200
H460        H  0.32826025  0.94016229  0.99292941     0.13200
C461        C  0.48978825  0.14562230  0.10860603     0.19300
C462        C  0.47369884  0.13405253  0.13274233    -0.18800
C463        C  0.44272181  0.13404487  0.13188244    -0.11000
C464        C  0.42696939  0.14579119  0.10670740     0.21600
C465        C  0.44311975  0.15786641  0.08286769    -0.20400
C466        C  0.47415160  0.15781616  0.08372478    -0.11200
C467        C  0.39393429  0.14633206  0.10448387    -0.15400
C468        C  0.37605079  0.13202082  0.12268055    -0.29200
C469        C  0.52271959  0.14492096  0.11077522    -0.03500
C470        C  0.54047913  0.14700783  0.08596288    -0.40000
H471        H  0.48519016  0.12481947  0.15238929     0.12700
H472        H  0.43152415  0.12509644  0.15127399     0.12400
H473        H  0.43166638  0.16737833  0.06339602     0.11800
H474        H  0.48568275  0.16765931  0.06512828     0.12000
H475        H  0.38384126  0.15861134  0.08635817     0.14800
H476        H  0.38504785  0.11888166  0.14039558     0.13500
H477        H  0.53275483  0.14112331  0.13370463     0.11200
H478        H  0.53119766  0.14963415  0.06254292     0.13200
C479        C  0.16244519  0.54086483  0.02626314     0.19300
C480        C  0.16190395  0.53650621  0.99388052    -0.18800
C481        C  0.16241615  0.51114400  0.98198333    -0.11000
C482        C  0.16357215  0.48942451  0.00236566     0.21600
C483        C  0.16460135  0.49385255  0.03478179    -0.20400
C484        C  0.16405639  0.51922183  0.04665557    -0.11200
C485        C  0.16407744  0.46193633  0.99113923    -0.15400
C486        C  0.15814993  0.45473327  0.96142179    -0.29200
C487        C  0.16214567  0.56820984  0.03775282    -0.03500
C488        C  0.15248620  0.57494777  0.06616044    -0.40000
H489        H  0.16102310  0.55283731  0.97766179     0.12700
H490        H  0.16231952  0.50892232  0.95687045     0.12400
H491        H  0.16584960  0.47758080  0.05106529     0.11800
H492        H  0.16546248  0.52172025  0.07175540     0.12000
H493        H  0.16851050  0.44675452  0.00850119     0.14800
H494        H  0.15265846  0.46903279  0.94346973     0.13500
H495        H  0.16877315  0.58351990  0.02163175     0.11200
H496        H  0.14404172  0.56025916  0.08202412     0.13200
C497        C  0.23251826  0.23088874  0.03495558     0.19300
C498        C  0.24435305  0.25615526  0.03595786    -0.18800
C499        C  0.23036128  0.27681644  0.02011831    -0.11000
C500        C  0.20417788  0.27264298  0.00236385     0.21600
C501        C  0.19229701  0.24732207  0.00137457    -0.20400
C502        C  0.20628438  0.22662875  0.01736260    -0.11200
C503        C  0.18830108  0.29401362  0.98503842    -0.15400
C504        C  0.19940564  0.31811509  0.98065351    -0.29200
C505        C  0.24876041  0.20972927  0.05206969    -0.03500
C506        C  0.23703758  0.18646196  0.05960373    -0.40000
H507        H  0.26449921  0.26002340  0.04934630     0.12700
H508        H  0.24019091  0.29590716  0.02237134     0.12400
H509        H  0.17217496  0.24346423  0.98795216     0.11800
H510        H  0.19668040  0.20739708  0.01534203     0.12000
H511        H  0.16645732  0.28964076  0.97525687     0.14800
H512        H  0.22128812  0.32327720  0.98934202     0.13500
H513        H  0.27135217  0.21390632  0.05980457     0.11200
H514        H  0.21423229  0.18182109  0.05349973     0.13200
C515        C  0.79770864  0.51452683  0.99921124     0.19300
C516        C  0.77625511  0.49499756  0.00266831    -0.18800
C517        C  0.77725479  0.47220618  0.98489640    -0.11000
C518        C  0.80019335  0.46821584  0.96354492     0.21600
C519        C  0.82152994  0.48786133  0.95995295    -0.20400
C520        C  0.82044259  0.51070900  0.97763654    -0.11200
C521        C  0.80302140  0.44392300  0.94486063    -0.15400
C522        C  0.78904492  0.42145119  0.95154117    -0.29200
C523        C  0.79616256  0.53803723  0.01933081    -0.03500
C524        C  0.80891691  0.56101443  0.01233703    -0.40000
H525        H  0.75849602  0.49745211  0.01910366     0.12700
H526        H  0.75986099  0.45802407  0.98796426     0.12400
H527        H  0.83947946  0.48532634  0.94376903     0.11800
H528        H  0.83785672  0.52494178  0.97481559     0.12000
H529        H  0.81862324  0.44412859  0.92578901     0.14800
H530        H  0.77428842  0.42004439  0.97116180     0.13500
H531        H  0.78325205  0.53652916  0.04048319     0.11200
H532        H  0.82067365  0.56362930  0.99065689     0.13200
C533        C  0.73306638  0.26378948  0.97920843     0.19300
C534        C  0.70326355  0.26517257  0.98787330    -0.18800
C535        C  0.69031825  0.24499477  0.00499011    -0.11000
C536        C  0.70697280  0.22281938  0.01392562     0.21600
C537        C  0.73660217  0.22116697  0.00473753    -0.20400
C538        C  0.74957027  0.24136475  0.98761359    -0.11200
C539        C  0.69396354  0.20061161  0.03158352    -0.15400
C540        C  0.66950917  0.20269218  0.04893227    -0.29200
C541        C  0.74559286  0.28580025  0.96075605    -0.03500
C542        C  0.77478505  0.28986843  0.95706897    -0.40000
H543        H  0.68985580  0.28197032  0.98131583     0.12700
H544        H  0.66712892  0.24672353  0.01051461     0.12400
H545        H  0.74980307  0.20412838  0.01081602     0.11800
H546        H  0.77229225  0.23896148  0.98064854     0.12000
H547        H  0.70530326  0.18189926  0.03071905     0.14800
H548        H  0.65844767  0.22133529  0.05145621     0.13500
H549        H  0.73001426  0.29972260  0.95036573     0.11200
H550        H  0.79110244  0.27698212  0.96790679     0.13200
C551        C  0.01161604  0.36302629  0.92698533     0.19300
C552        C  0.99431050  0.36730891  0.89979906    -0.18800
C553        C  0.96349389  0.36547344  0.90044420    -0.11000
C554        C  0.94917728  0.35895259  0.92835155     0.21600
C555        C  0.96639717  0.35476439  0.95564980    -0.20400
C556        C  0.99734457  0.35656970  0.95500724    -0.11200
C557        C  0.91636515  0.35732209  0.92985106    -0.15400
C558        C  0.89910530  0.35146376  0.90484276    -0.29200
C559        C  0.04430701  0.36528375  0.92455718    -0.03500
C560        C  0.06327946  0.36766320  0.94905021    -0.40000
H561        H  0.00466967  0.37242895  0.87794451     0.12700
H562        H  0.95101316  0.36972057  0.87914167     0.12400
H563        H  0.95587481  0.34982503  0.97746753     0.11800
H564        H  0.00979896  0.35261167  0.97637719     0.12000
H565        H  0.90615373  0.36062195  0.95231983     0.14800
H566        H  0.90893359  0.34669489  0.88262203     0.13500
H567        H  0.05315832  0.36591911  0.90107555     0.11200
H568        H  0.05550999  0.36795160  0.97288094     0.13200
C569        C  0.66677205  0.52221821  0.46033092     0.19300
C570        C  0.66850739  0.49733055  0.44691374    -0.18800
C571        C  0.67136039  0.47496884  0.46569105    -0.11000
C572        C  0.67274334  0.47701534  0.49855386     0.21600
C573        C  0.67156387  0.50191071  0.51192704    -0.20400
C574        C  0.66879529  0.52424341  0.49318520    -0.11200
C575        C  0.67340913  0.45391960  0.51988370    -0.15400
C576        C  0.67841806  0.42926613  0.51069091    -0.29200
C577        C  0.66249483  0.54525853  0.43919899    -0.03500
C578        C  0.65609815  0.56943041  0.44922036    -0.40000
H579        H  0.66706127  0.49509967  0.42172629     0.12700
H580        H  0.67158557  0.45626431  0.45419039     0.12400
H581        H  0.67256962  0.50412074  0.53713434     0.11800
H582        H  0.66829814  0.54284464  0.50486384     0.12000
H583        H  0.66854316  0.45733444  0.54434969     0.14800
H584        H  0.68395346  0.42491274  0.48672883     0.13500
H585        H  0.66366830  0.54199224  0.41412913     0.11200
H586        H  0.65393045  0.57354938  0.47387484     0.13200
C587        C  0.74752830  0.36748928  0.76842445     0.19300
C588        C  0.72532478  0.38504880  0.75839773    -0.18800
C589        C  0.71433383  0.38468028  0.72749127    -0.11000
C590        C  0.72560287  0.36677195  0.70577223     0.21600
C591        C  0.74808539  0.34950237  0.71581139    -0.20400
C592        C  0.75901048  0.34987086  0.74661891    -0.11200
C593        C  0.71493356  0.36503096  0.67257599    -0.15400
C594        C  0.69319643  0.37971315  0.65947219    -0.29200
C595        C  0.75889075  0.36866275  0.80136206    -0.03500
C596        C  0.77247337  0.34846479  0.81601131    -0.40000
H597        H  0.71630323  0.39901379  0.77461162     0.12700
H598        H  0.69715465  0.39849640  0.72103080     0.12400
H599        H  0.75742208  0.33565130  0.69965635     0.11800
H600        H  0.77684376  0.33662027  0.75294830     0.12000
H601        H  0.72527853  0.35030509  0.65815584     0.14800
H602        H  0.68174028  0.39440420  0.67276311     0.13500
H603        H  0.75538226  0.38660905  0.81422183     0.11200
H604        H  0.77492955  0.32990076  0.80428825     0.13200
C605        C  0.27801452  0.51903783  0.51421064     0.19300
C606        C  0.28657504  0.51755410  0.54590265    -0.18800
C607        C  0.28862267  0.49347202  0.56123778    -0.11000
C608        C  0.28194923  0.47029321  0.54513115     0.21600
C609        C  0.27197711  0.47185819  0.51384327    -0.20400
C610        C  0.27014349  0.49597973  0.49840918    -0.11200
C611        C  0.28535387  0.44424090  0.56012131    -0.15400
C612        C  0.30500142  0.43942898  0.58353407    -0.29200
C613        C  0.27765708  0.54500020  0.49869240    -0.03500
C614        C  0.28171977  0.54852290  0.46787054    -0.40000
H615        H  0.29223588  0.53508949  0.55872543     0.12700
H616        H  0.29528792  0.49315946  0.58569405     0.12400
H617        H  0.26620405  0.45431002  0.50110563     0.11800
H618        H  0.26248223  0.49647486  0.47426026     0.12000
H619        H  0.27281411  0.42811859  0.55011657     0.14800
H620        H  0.31902310  0.45486967  0.59273076     0.13500
H621        H  0.27629586  0.56203067  0.51365931     0.11200
H622        H  0.28471868  0.53196911  0.45253159     0.13200
C623        C  0.22351039  0.37597464  0.80506182     0.19300
C624        C  0.25417599  0.37882800  0.80146289    -0.18800
C625        C  0.26678607  0.37752219  0.77189993    -0.11000
C626        C  0.24889161  0.37324029  0.74506768     0.21600
C627        C  0.21816214  0.37083522  0.74858227    -0.20400
C628        C  0.20554051  0.37217770  0.77816054    -0.11200
C629        C  0.26109498  0.37202628  0.71300027    -0.15400
C630        C  0.28987382  0.36785933  0.70700871    -0.29200
C631        C  0.21136642  0.37791382  0.83710934    -0.03500
C632        C  0.18388184  0.37048580  0.84485813    -0.40000
H633        H  0.26851928  0.38216896  0.82167883     0.12700
H634        H  0.29042284  0.38038254  0.77034003     0.12400
H635        H  0.20378715  0.36792665  0.72829373     0.11800
H636        H  0.18173228  0.37066044  0.77953526     0.12000
H637        H  0.24553196  0.37412276  0.69339075     0.14800
H638        H  0.30594341  0.36473715  0.72583910     0.13500
H639        H  0.22608260  0.38532718  0.85544114     0.11200
H640        H  0.16878821  0.36211571  0.82764513     0.13200
C641        C  0.46006879  0.35381039  0.58908464     0.19300
C642        C  0.47403912  0.35821584  0.56053825    -0.18800
C643        C  0.50472229  0.35560311  0.55828244    -0.11000
C644        C  0.52219421  0.34903417  0.58487306     0.21600
C645        C  0.50806499  0.34395758  0.61321165    -0.20400
C646        C  0.47736348  0.34641935  0.61541231    -0.11200
C647        C  0.55510010  0.34813806  0.58453488    -0.15400
C648        C  0.57129030  0.35930977  0.56207324    -0.29200
C649        C  0.42778650  0.35862004  0.59094009    -0.03500
C650        C  0.41058837  0.34763851  0.61266218    -0.40000
H651        H  0.46115473  0.36382377  0.53990068     0.12700
H652        H  0.51440652  0.35886119  0.53568032     0.12400
H653        H  0.52093752  0.33883362  0.63403383     0.11800
H654        H  0.46751917  0.34344403  0.63802252     0.12000
H655        H  0.56653926  0.33947918  0.60469790     0.14800
H656        H  0.56083875  0.36895438  0.54210836     0.13500
H657        H  0.41770026  0.37147709  0.57339523     0.11200
H658        H  0.41958241  0.33346729  0.62926195     0.13200
C659        C  0.14928953  0.96695789  0.54263290     0.19300
C660        C  0.15751939  0.98974064  0.55870158    -0.18800
C661        C  0.15941540  0.01368034  0.54296602    -0.11000
C662        C  0.15305252  0.01533383  0.51063717     0.21600
C663        C  0.14469545  0.99260485  0.49462209    -0.20400
C664        C  0.14282084  0.96869011  0.51032158    -0.11200
C665        C  0.15330097  0.04039125  0.49295730    -0.15400
C666        C  0.16740832  0.06206434  0.50268952    -0.29200
C667        C  0.14622027  0.94225113  0.56077582    -0.03500
C668        C  0.14429308  0.91839484  0.54783467    -0.40000
H669        H  0.16221966  0.98907506  0.58366120     0.12700
H670        H  0.16509593  0.03080415  0.55643964     0.12400
H671        H  0.13928940  0.99338669  0.46980862     0.11800
H672        H  0.13553423  0.95192242  0.49706646     0.12000
H673        H  0.14163127  0.04084967  0.47044589     0.14800
H674        H  0.18032159  0.06217002  0.52435357     0.13500
H675        H  0.14560287  0.94380444  0.58612344     0.11200
H676        H  0.14593508  0.91580221  0.52278438     0.13200
C677        C  0.22217586  0.13727675  0.31582110     0.19300
C678        C  0.21176670  0.15309378  0.29102527    -0.18800
C679        C  0.22261589  0.15000994  0.26089279    -0.11000
C680        C  0.24437920  0.13109791  0.25499277     0.21600
C681        C  0.25508178  0.11547712  0.27978707    -0.20400
C682        C  0.24436659  0.11866407  0.30999727    -0.11200
C683        C  0.25532099  0.12646805  0.22303725    -0.15400
C684        C  0.25669778  0.14542110  0.20128343    -0.29200
C685        C  0.20904982  0.14073563  0.34712819    -0.03500
C686        C  0.21009040  0.12245916  0.36983733    -0.40000
H687        H  0.19469090  0.16756208  0.29484244     0.12700
H688        H  0.21331570  0.16195542  0.24217175     0.12400
H689        H  0.27190260  0.10081912  0.27577459     0.11800
H690        H  0.25367363  0.10658476  0.32854523     0.12000
H691        H  0.26324478  0.10701006  0.21752017     0.14800
H692        H  0.25086712  0.16536908  0.20700569     0.13500
H693        H  0.19640285  0.15847791  0.35096756     0.11200
H694        H  0.22120004  0.10396262  0.36637359     0.13200
C695        C  0.25796249  0.26546256  0.55421285     0.19300
C696        C  0.23237394  0.25269936  0.56429136    -0.18800
C697        C  0.22051948  0.23183154  0.54736588    -0.11000
C698        C  0.23415178  0.22325231  0.51993328     0.21600
C699        C  0.26005178  0.23567375  0.51015906    -0.20400
C700        C  0.27186961  0.25660420  0.52703135    -0.11200
C701        C  0.22269301  0.20078990  0.50171736    -0.15400
C702        C  0.19409408  0.19360869  0.50150650    -0.29200
C703        C  0.27003683  0.28716326  0.57337391    -0.03500
C704        C  0.28818736  0.30554560  0.56211737    -0.40000
H705        H  0.22153516  0.25886311  0.58541770     0.12700
H706        H  0.20112261  0.22215567  0.55628013     0.12400
H707        H  0.27121689  0.22912335  0.48939397     0.11800
H708        H  0.29220945  0.26527367  0.51904427     0.12000
H709        H  0.23817378  0.19031403  0.48716429     0.14800
H710        H  0.17784881  0.20463935  0.51437183     0.13500
H711        H  0.26300836  0.28848001  0.59751061     0.11200
H712        H  0.29447340  0.30557907  0.53775649     0.13200
C713        C  0.80004579  0.97489874  0.51476920     0.19300
C714        C  0.82554862  0.98452413  0.50048231    -0.18800
C715        C  0.82516001  0.00887640  0.48554474    -0.11000
C716        C  0.79928579  0.02426270  0.48509194     0.21600
C717        C  0.77413046  0.01503545  0.50039370    -0.20400
C718        C  0.77436462  0.99047287  0.51484903    -0.11200
C719        C  0.79828836  0.05037593  0.46990488    -0.15400
C720        C  0.81394578  0.05616555  0.44435617    -0.29200
C721        C  0.80125116  0.94906611  0.53051308    -0.03500
C722        C  0.77780407  0.93295857  0.53171668    -0.40000
H723        H  0.84574996  0.97305890  0.50066038     0.12700
H724        H  0.84526861  0.01580819  0.47491922     0.12400
H725        H  0.75414503  0.02676134  0.50086853     0.11800
H726        H  0.75464386  0.98392554  0.52656037     0.12000
H727        H  0.78370311  0.06504112  0.47958766     0.14800
H728        H  0.82742771  0.04130524  0.43349690     0.13500
H729        H  0.82248986  0.94263353  0.54026292     0.11200
H730        H  0.75698427  0.93824059  0.52016011     0.13200
C731        C  0.71250504  0.12873624  0.22096108     0.19300
C732        C  0.74255600  0.12183151  0.22398829    -0.18800
C733        C  0.75652963  0.12042844  0.25349466    -0.11000
C734        C  0.74059248  0.12579969  0.28072362     0.21600
C735        C  0.71038671  0.13205833  0.27774026    -0.20400
C736        C  0.69646998  0.13359507  0.24825648    -0.11200
C737        C  0.75437138  0.12463277  0.31261430    -0.15400
C738        C  0.78353102  0.12790999  0.31832963    -0.29200
C739        C  0.69833718  0.12936292  0.18919765    -0.03500
C740        C  0.67338466  0.14278799  0.18216303    -0.40000
H741        H  0.75528663  0.11749873  0.20341486     0.12700
H742        H  0.77959247  0.11468192  0.25481461     0.12400
H743        H  0.69748844  0.13588793  0.29834148     0.11800
H744        H  0.67303686  0.13802206  0.24712095     0.12000
H745        H  0.73968697  0.12241001  0.33231898     0.14800
H746        H  0.79855736  0.13149943  0.29928578     0.13500
H747        H  0.70912537  0.11859122  0.17075461     0.11200
H748        H  0.66288749  0.15472713  0.19966146     0.13200
C749        C  0.73499279  0.27074017  0.50974242     0.19300
C750        C  0.75594426  0.27259305  0.48601886    -0.18800
C751        C  0.76713790  0.25016944  0.47194317    -0.11000
C752        C  0.75760711  0.22522537  0.48142657     0.21600
C753        C  0.73730518  0.22339090  0.50582195    -0.20400
C754        C  0.72611032  0.24582577  0.51987273    -0.11200
C755        C  0.76887866  0.20064704  0.46746368    -0.15400
C756        C  0.78403878  0.19954406  0.44069648    -0.29200
C757        C  0.72326049  0.29519246  0.52344635    -0.03500
C758        C  0.69702982  0.29668728  0.53774886    -0.40000
H759        H  0.76352984  0.29152714  0.47813030     0.12700
H760        H  0.78346876  0.25267789  0.45404339     0.12400
H761        H  0.72999537  0.20447263  0.51404803     0.11800
H762        H  0.71083660  0.24346771  0.53885841     0.12000
H763        H  0.76436021  0.18251948  0.47981489     0.14800
H764        H  0.78852777  0.21700582  0.42721858     0.13500
H765        H  0.73596176  0.31296646  0.52010686     0.11200
H766        H  0.68312511  0.27957745  0.54005565     0.13200
C767        C  0.02205348  0.14369774  0.43541918     0.19300
C768        C  0.00152425  0.15152129  0.45772270    -0.18800
C769        C  0.97126164  0.15229381  0.45028259    -0.11000
C770        C  0.96088754  0.14476086  0.42038345     0.21600
C771        C  0.98148323  0.13742780  0.39792059    -0.20400
C772        C  0.01172188  0.13669175  0.40533616    -0.11200
C773        C  0.92890862  0.14374760  0.41178147    -0.15400
C774        C  0.90739585  0.14187182  0.43293721    -0.29200
C775        C  0.05377135  0.14177670  0.44483360    -0.03500
C776        C  0.07587581  0.14210485  0.42426204    -0.40000
H777        H  0.00893895  0.15704751  0.48102967     0.12700
H778        H  0.95627472  0.15887920  0.46801604     0.12400
H779        H  0.97407724  0.13152942  0.37474473     0.11800
H780        H  0.02666160  0.12982159  0.38770595     0.12000
H781        H  0.92294045  0.14286700  0.38702605     0.14800
H782        H  0.91255316  0.14162722  0.45781815     0.13500
H783        H  0.05912355  0.14012351  0.46969630     0.11200
H784        H  0.07139643  0.14504193  0.39946164     0.13200
loop_ 
_geom_bond_atom_site_label_1 
_geom_bond_atom_site_label_2 
_geom_bond_distance 
_geom_bond_site_symmetry_2 
_ccdc_geom_bond_type 
In1           O3   2.244       .  S
In1           O4   2.250       .  S
In1          O12   2.251       .  S
In1           O6   2.242       .  S
In1           O8   2.245       .  S
In1           O9   2.253       .  S
In1          O10   2.238       .  S
In1          O13   2.244       .  S
C2            O8   1.261       .  A
C2           O10   1.257       .  A
C2          C774   1.468       .  S
O3           C11   1.259       .  A
O4           C11   1.262       .  A
C5           O12   1.263       .  A
C5            O6   1.259       .  A
C5          C738   1.474       .  S
C7            O9   1.262       .  A
C7           O13   1.259       .  A
C7          C720   1.473       .  S
C11         C756   1.473       .  S
In14         O16   2.244       .  S
In14         O17   2.239       .  S
In14         O25   2.246       .  S
In14         O19   2.243       .  S
In14         O21   2.244       .  S
In14         O22   2.253       .  S
In14         O23   2.242       .  S
In14         O26   2.241       .  S
C15          O21   1.260       .  A
C15          O23   1.257       .  A
C15         C776   1.468       .  S
O16          C24   1.260       .  A
O17          C24   1.262       .  A
C18          O25   1.260       .  A
C18          O19   1.257       .  A
C18         C702   1.469       .  S
C20          O22   1.259       .  A
C20          O26   1.260       .  A
C20         C666   1.474       .  S
C24         C686   1.471       .  S
In27         O29   2.249       .  S
In27         O30   2.243       .  S
In27         O38   2.248       .  S
In27         O32   2.245       .  S
In27         O34   2.245       .  S
In27         O35   2.244       .  S
In27         O36   2.234       .  S
In27         O39   2.242       .  S
C28          O34   1.260       .  A
C28          O36   1.260       .  A
C28         C650   1.469       .  S
O29          C37   1.260       .  A
O30          C37   1.256       .  A
C31          O38   1.262       .  A
C31          O32   1.259       .  A
C31         C630   1.473       .  S
C33          O35   1.261       .  A
C33          O39   1.259       .  A
C33         C612   1.470       .  S
C37         C704   1.469       .  S
In40         O42   2.256       .  S
In40         O43   2.254       .  S
In40         O51   2.248       .  S
In40         O45   2.244       .  S
In40         O47   2.241       .  S
In40         O48   2.250       .  S
In40         O49   2.251       .  S
In40         O52   2.249       .  S
C41          O47   1.257       .  A
C41          O49   1.260       .  A
C41         C648   1.469       .  S
O42          C50   1.258       .  A
O43          C50   1.260       .  A
C44          O51   1.263       .  A
C44          O45   1.260       .  A
C44         C758   1.474       .  S
C46          O48   1.261       .  A
C46          O52   1.259       .  A
C46         C576   1.474       .  S
C50         C594   1.477       .  S
In53         O55   2.249       .  S
In53         O56   2.262       .  S
In53         O64   2.255       .  S
In53         O58   2.251       .  S
In53         O60   2.255       .  S
In53         O61   2.249       .  S
In53         O62   2.246       .  S
In53         O65   2.243       .  S
C54          O60   1.260       .  A
C54          O62   1.259       .  A
C54         C558   1.472       .  S
O55          C63   1.258       .  A
O56          C63   1.260       .  A
C57          O64   1.261       .  A
C57          O58   1.259       .  A
C57         C542   1.476       .  S
C59          O61   1.261       .  A
C59          O65   1.259       .  A
C59         C522   1.473       .  S
C63         C596   1.475       .  S
In66         O68   2.257       .  S
In66         O69   2.246       .  S
In66         O77   2.249       .  S
In66         O71   2.246       .  S
In66         O73   2.232       .  S
In66         O74   2.253       .  S
In66         O75   2.254       .  S
In66         O78   2.249       .  S
C67          O73   1.260       .  A
C67          O75   1.260       .  A
C67         C560   1.474       .  S
O68          C76   1.259       .  A
O69          C76   1.258       .  A
C70          O77   1.261       .  A
C70          O71   1.259       .  A
C70         C632   1.474       .  S
C72          O74   1.260       .  A
C72          O78   1.258       .  A
C72         C486   1.474       .  S
C76         C504   1.474       .  S
In79         O81   2.245       .  S
In79         O82   2.248       .  S
In79         O90   2.251       .  S
In79         O84   2.243       .  S
In79         O86   2.254       .  S
In79         O87   2.256       .  S
In79         O88   2.246       .  S
In79         O91   2.241       .  S
C80          O86   1.262       .  A
C80          O88   1.259       .  A
C80         C468   1.475       .  S
O81          C89   1.258       .  A
O82          C89   1.260       .  A
C83          O90   1.260       .  A
C83          O84   1.262       .  A
C83         C506   1.475       .  S
C85          O87   1.260       .  A
C85          O91   1.260       .  A
C85         C450   1.475       .  S
C89         C684   1.470       .  S
In92         O94   2.248       .  S
In92         O95   2.258       .  S
In92        O103   2.258       .  S
In92         O97   2.254       .  S
In92         O99   2.249       .  S
In92        O100   2.246       .  S
In92        O101   2.253       .  S
In92        O104   2.253       .  S
C93          O99   1.261       .  A
C93         O101   1.260       .  A
C93         C470   1.476       .  S
O94         C102   1.258       .  A
O95         C102   1.260       .  A
C96         O103   1.259       .  A
C96          O97   1.258       .  A
C96         C740   1.476       .  S
C98         O100   1.261       .  A
C98         O104   1.260       .  A
C98         C432   1.476       .  S
C102        C540   1.475       .  S
In105       O107   2.247       .  S
In105       O108   2.246       .  S
In105       O116   2.251       .  S
In105       O110   2.256       .  S
In105       O112   2.243       .  S
In105       O113   2.257       .  S
In105       O114   2.244       .  S
In105       O117   2.245       .  S
C106        O112   1.262       .  A
C106        O114   1.259       .  A
C106        C414   1.471       .  S
O107        C115   1.260       .  A
O108        C115   1.262       .  A
C109        O116   1.258       .  A
C109        O110   1.260       .  A
C109        C378   1.475       .  S
C111        O113   1.259       .  A
C111        O117   1.258       .  A
C111        C722   1.473       .  S
C115        C396   1.473       .  S
In118       O120   2.242       .  S
In118       O121   2.243       .  S
In118       O129   2.250       .  S
In118       O123   2.249       .  S
In118       O125   2.247       .  S
In118       O126   2.245       .  S
In118       O127   2.246       .  S
In118       O130   2.254       .  S
C119        O125   1.260       .  A
C119        O127   1.258       .  A
C119        C416   1.471       .  S
O120        C128   1.259       .  A
O121        C128   1.261       .  A
C122        O129   1.261       .  A
C122        O123   1.259       .  A
C122        C362   1.475       .  S
C124        O126   1.260       .  A
C124        O130   1.260       .  A
C124        C668   1.474       .  S
C128        C342   1.470       .  S
In131       O133   2.249       .  S
In131       O134   2.257       .  S
In131       O142   2.245       .  S
In131       O136   2.246       .  S
In131       O138   2.257       .  S
In131       O139   2.239       .  S
In131       O140   2.244       .  S
In131       O143   2.250       .  S
C132        O138   1.263       .  A
C132        O140   1.260       .  A
C132        C324   1.476       .  S
O133        C141   1.258       .  A
O134        C141   1.259       .  A
C135        O142   1.258       .  A
C135        O136   1.261       .  A
C135        C308   1.472       .  S
C137        O139   1.261       .  A
C137        O143   1.260       .  A
C137        C614   1.473       .  S
C141        C360   1.474       .  S
In144       O146   2.248       .  S
In144       O147   2.247       .  S
In144       O155   2.252       .  S
In144       O149   2.239       .  S
In144       O151   2.240       .  S
In144       O152   2.236       .  S
In144       O153   2.260       .  S
In144       O156   2.256       .  S
C145        O151   1.259       .  A
C145        O153   1.259       .  A
C145        C326   1.475       .  S
O146        C154   1.259       .  A
O147        C154   1.261       .  A
C148        O155   1.262       .  A
C148        O149   1.260       .  A
C148        C398   1.473       .  S
C150        O152   1.258       .  A
C150        O156   1.262       .  A
C150        C578   1.472       .  S
C154        C290   1.474       .  S
In157       O159   2.248       .  S
In157       O160   2.245       .  S
In157       O168   2.259       .  S
In157       O162   2.243       .  S
In157       O164   2.259       .  S
In157       O165   2.261       .  S
In157       O166   2.248       .  S
In157       O169   2.247       .  S
C158        O164   1.259       .  A
C158        O166   1.259       .  A
C158        C270   1.475       .  S
O159        C167   1.261       .  A
O160        C167   1.261       .  A
C161        O168   1.261       .  A
C161        O162   1.258       .  A
C161        C252   1.474       .  S
C163        O165   1.260       .  A
C163        O169   1.257       .  A
C163        C452   1.474       .  S
C167        C344   1.474       .  S
In170       O172   2.247       .  S
In170       O173   2.259       .  S
In170       O181   2.244       .  S
In170       O175   2.255       .  S
In170       O177   2.248       .  S
In170       O178   2.252       .  S
In170       O179   2.253       .  S
In170       O182   2.248       .  S
C171        O177   1.259       .  A
C171        O179   1.261       .  A
C171        C272   1.474       .  S
O172        C180   1.258       .  A
O173        C180   1.260       .  A
C174        O181   1.259       .  A
C174        O175   1.261       .  A
C174        C380   1.474       .  S
C176        O178   1.260       .  A
C176        O182   1.261       .  A
C176        C434   1.476       .  S
C180        C236   1.475       .  S
In183       O185   2.260       .  S
In183       O186   2.242       .  S
In183       O194   2.252       .  S
In183       O188   2.256       .  S
In183       O190   2.250       .  S
In183       O191   2.241       .  S
In183       O192   2.250       .  S
In183       O195   2.254       .  S
C184        O190   1.260       .  A
C184        O192   1.258       .  A
C184        C218   1.473       .  S
O185        C193   1.260       .  A
O186        C193   1.257       .  A
C187        O194   1.258       .  A
C187        O188   1.259       .  A
C187        C234   1.475       .  S
C189        O191   1.260       .  A
C189        O195   1.261       .  A
C189        C524   1.474       .  S
C193        C288   1.472       .  S
In196       O198   2.244       .  S
In196       O199   2.248       .  S
In196       O207   2.241       .  S
In196       O201   2.252       .  S
In196       O203   2.246       .  S
In196       O204   2.258       .  S
In196       O205   2.238       .  S
In196       O208   2.244       .  S
C197        O203   1.262       .  A
C197        O205   1.259       .  A
C197        C216   1.471       .  S
O198        C206   1.260       .  A
O199        C206   1.263       .  A
C200        O207   1.259       .  A
C200        O201   1.262       .  A
C200        C306   1.473       .  S
C202        O204   1.262       .  A
C202        O208   1.258       .  A
C202        C488   1.474       .  S
C206        C254   1.475       .  S
C209        C217   1.487       .  S
C209        C210   1.403       .  A
C209        C214   1.408       .  A
C210        C211   1.397       .  A
C210        H219   1.084       .  S
C211        C212   1.407   1_655  A
C211        H220   1.081   1_655  S
C212        C215   1.485       .  S
C212        C213   1.403   1_455  A
C213        C214   1.398       .  A
C213        H221   1.084       .  S
C214        H222   1.081       .  S
C215        H223   1.087       .  S
C215        C216   1.344       .  D
C216        H224   1.085       .  S
C217        H225   1.087       .  S
C217        C218   1.345       .  D
C218        H226   1.084       .  S
C227        C235   1.489       .  S
C227        C228   1.403       .  A
C227        C232   1.408       .  A
C228        C229   1.399       .  A
C228        H237   1.083       .  S
C229        C230   1.409   1_556  A
C229        H238   1.080       .  S
C230        C233   1.491       .  S
C230        C231   1.404       .  A
C231        C232   1.399   1_554  A
C231        H239   1.083       .  S
C232        H240   1.081       .  S
C233        H241   1.087       .  S
C233        C234   1.346       .  D
C234        H242   1.083       .  S
C235        H243   1.087       .  S
C235        C236   1.345       .  D
C236        H244   1.084       .  S
C245        C253   1.491       .  S
C245        C246   1.404   1_554  A
C245        C250   1.409       .  A
C246        C247   1.398       .  A
C246        H255   1.084       .  S
C247        C248   1.408       .  A
C247        H256   1.080       .  S
C248        C251   1.490       .  S
C248        C249   1.403   1_556  A
C249        C250   1.399       .  A
C249        H257   1.083       .  S
C250        H258   1.080       .  S
C251        H259   1.087       .  S
C251        C252   1.345       .  D
C252        H260   1.083       .  S
C253        H261   1.087       .  S
C253        C254   1.346       .  D
C254        H262   1.083       .  S
C263        C271   1.487       .  S
C263        C264   1.403       .  A
C263        C268   1.406       .  A
C264        C265   1.399       .  A
C264        H273   1.083       .  S
C265        C266   1.409       .  A
C265        H274   1.079       .  S
C266        C269   1.491       .  S
C266        C267   1.405       .  A
C267        C268   1.398       .  A
C267        H275   1.084       .  S
C268        H276   1.081       .  S
C269        H277   1.087       .  S
C269        C270   1.347       .  D
C270        H278   1.082       .  S
C271        H279   1.087       .  S
C271        C272   1.346       .  D
C272        H280   1.084       .  S
C281        C289   1.485       .  S
C281        C282   1.403       .  A
C281        C286   1.408       .  A
C282        C283   1.397       .  A
C282        H291   1.083       .  S
C283        C284   1.407       .  A
C283        H292   1.082       .  S
C284        C287   1.484       .  S
C284        C285   1.402       .  A
C285        C286   1.399       .  A
C285        H293   1.083       .  S
C286        H294   1.082       .  S
C287        H295   1.087       .  S
C287        C288   1.343       .  D
C288        H296   1.086       .  S
C289        H297   1.087       .  S
C289        C290   1.344       .  D
C290        H298   1.085       .  S
C299        C307   1.486       .  S
C299        C300   1.402       .  A
C299        C304   1.408       .  A
C300        C301   1.397       .  A
C300        H309   1.084       .  S
C301        C302   1.409       .  A
C301        H310   1.080       .  S
C302        C305   1.490       .  S
C302        C303   1.405       .  A
C303        C304   1.399       .  A
C303        H311   1.083       .  S
C304        H312   1.081       .  S
C305        H313   1.087       .  S
C305        C306   1.346       .  D
C306        H314   1.083       .  S
C307        H315   1.087       .  S
C307        C308   1.344       .  D
C308        H316   1.084       .  S
C317        C325   1.487       .  S
C317        C318   1.403       .  A
C317        C322   1.407       .  A
C318        C319   1.398       .  A
C318        H327   1.084       .  S
C319        C320   1.409       .  A
C319        H328   1.080       .  S
C320        C323   1.493       .  S
C320        C321   1.405       .  A
C321        C322   1.400       .  A
C321        H329   1.083       .  S
C322        H330   1.081       .  S
C323        H331   1.087       .  S
C323        C324   1.347       .  D
C324        H332   1.083       .  S
C325        H333   1.087       .  S
C325        C326   1.346       .  D
C326        H334   1.084       .  S
C335        C343   1.490       .  S
C335        C336   1.405       .  A
C335        C340   1.410       .  A
C336        C337   1.397       .  A
C336        H345   1.083       .  S
C337        C338   1.405       .  A
C337        H346   1.082       .  S
C338        C341   1.482       .  S
C338        C339   1.402       .  A
C339        C340   1.398       .  A
C339        H347   1.083       .  S
C340        H348   1.079       .  S
C341        H349   1.087       .  S
C341        C342   1.344       .  D
C342        H350   1.085       .  S
C343        H351   1.087       .  S
C343        C344   1.346       .  D
C344        H352   1.082       .  S
C353        C361   1.487       .  S
C353        C354   1.402       .  A
C353        C358   1.407       .  A
C354        C355   1.397       .  A
C354        H363   1.084       .  S
C355        C356   1.409       .  A
C355        H364   1.079       .  S
C356        C359   1.492       .  S
C356        C357   1.405       .  A
C357        C358   1.400       .  A
C357        H365   1.083       .  S
C358        H366   1.081       .  S
C359        H367   1.087       .  S
C359        C360   1.347       .  D
C360        H368   1.082       .  S
C361        H369   1.087       .  S
C361        C362   1.345       .  D
C362        H370   1.085       .  S
C371        C379   1.489       .  S
C371        C372   1.404       .  A
C371        C376   1.409       .  A
C372        C373   1.399       .  A
C372        H381   1.083       .  S
C373        C374   1.408       .  A
C373        H382   1.082       .  S
C374        C377   1.487       .  S
C374        C375   1.403       .  A
C375        C376   1.399       .  A
C375        H383   1.083       .  S
C376        H384   1.081       .  S
C377        H385   1.087       .  S
C377        C378   1.345       .  D
C378        H386   1.085       .  S
C379        H387   1.087       .  S
C379        C380   1.345       .  D
C380        H388   1.084       .  S
C389        C397   1.487       .  S
C389        C390   1.403       .  A
C389        C394   1.408       .  A
C390        C391   1.398       .  A
C390        H399   1.083       .  S
C391        C392   1.407       .  A
C391        H400   1.082       .  S
C392        C395   1.484       .  S
C392        C393   1.402       .  A
C393        C394   1.398       .  A
C393        H401   1.083       .  S
C394        H402   1.081       .  S
C395        H403   1.087       .  S
C395        C396   1.344       .  D
C396        H404   1.085       .  S
C397        H405   1.087       .  S
C397        C398   1.345       .  D
C398        H406   1.084       .  S
C407        C415   1.488   1_655  S
C407        C408   1.403       .  A
C407        C412   1.409       .  A
C408        C409   1.397       .  A
C408        H417   1.084       .  S
C409        C410   1.408       .  A
C409        H418   1.080       .  S
C410        C413   1.488       .  S
C410        C411   1.403       .  A
C411        C412   1.397       .  A
C411        H419   1.083       .  S
C412        H420   1.079       .  S
C413        H421   1.087       .  S
C413        C414   1.345       .  D
C414        H422   1.083       .  S
C415        H423   1.087       .  S
C415        C416   1.345       .  D
C416        H424   1.082       .  S
C425        C433   1.490       .  S
C425        C426   1.404   1_556  A
C425        C430   1.408   1_565  A
C426        C427   1.399   1_565  A
C426        H435   1.083       .  S
C427        C428   1.407       .  A
C427        H436   1.081       .  S
C428        C431   1.488       .  S
C428        C429   1.404   1_554  A
C429        C430   1.399       .  A
C429        H437   1.083       .  S
C430        H438   1.081       .  S
C431        H439   1.087       .  S
C431        C432   1.346       .  D
C432        H440   1.084       .  S
C433        H441   1.087       .  S
C433        C434   1.347       .  D
C434        H442   1.083       .  S
C443        C451   1.487       .  S
C443        C444   1.405   1_556  A
C443        C448   1.407   1_556  A
C444        C445   1.401   1_565  A
C444        H453   1.083   1_554  S
C445        C446   1.407       .  A
C445        H454   1.082       .  S
C446        C449   1.483       .  S
C446        C447   1.402       .  A
C447        C448   1.396   1_545  A
C447        H455   1.084       .  S
C448        H456   1.082   1_554  S
C449        H457   1.087       .  S
C449        C450   1.344       .  D
C450        H458   1.085       .  S
C451        H459   1.087       .  S
C451        C452   1.345       .  D
C452        H460   1.085       .  S
C461        C469   1.487       .  S
C461        C462   1.402       .  A
C461        C466   1.407       .  A
C462        C463   1.398       .  A
C462        H471   1.084       .  S
C463        C464   1.409       .  A
C463        H472   1.079       .  S
C464        C467   1.492       .  S
C464        C465   1.405       .  A
C465        C466   1.400       .  A
C465        H473   1.084       .  S
C466        H474   1.081       .  S
C467        H475   1.087       .  S
C467        C468   1.347       .  D
C468        H476   1.082       .  S
C469        H477   1.087       .  S
C469        C470   1.345       .  D
C470        H478   1.085       .  S
C479        C487   1.488       .  S
C479        C480   1.402   1_554  A
C479        C484   1.407       .  A
C480        C481   1.399       .  A
C480        H489   1.083       .  S
C481        C482   1.409   1_556  A
C481        H490   1.080       .  S
C482        C485   1.491   1_554  S
C482        C483   1.405       .  A
C483        C484   1.399       .  A
C483        H491   1.083       .  S
C484        H492   1.081       .  S
C485        H493   1.087   1_556  S
C485        C486   1.346       .  D
C486        H494   1.082       .  S
C487        H495   1.087       .  S
C487        C488   1.344       .  D
C488        H496   1.085       .  S
C497        C505   1.488       .  S
C497        C498   1.402       .  A
C497        C502   1.408       .  A
C498        C499   1.396       .  A
C498        H507   1.084       .  S
C499        C500   1.409       .  A
C499        H508   1.079       .  S
C500        C503   1.492   1_554  S
C500        C501   1.405       .  A
C501        C502   1.400       .  A
C501        H509   1.083   1_554  S
C502        H510   1.081       .  S
C503        H511   1.087       .  S
C503        C504   1.347       .  D
C504        H512   1.082       .  S
C505        H513   1.088       .  S
C505        C506   1.345       .  D
C506        H514   1.084       .  S
C515        C523   1.486   1_556  S
C515        C516   1.403   1_556  A
C515        C520   1.407       .  A
C516        C517   1.398   1_554  A
C516        H525   1.084       .  S
C517        C518   1.409       .  A
C517        H526   1.080       .  S
C518        C521   1.489       .  S
C518        C519   1.404       .  A
C519        C520   1.398       .  A
C519        H527   1.083       .  S
C520        H528   1.081       .  S
C521        H529   1.087       .  S
C521        C522   1.346       .  D
C522        H530   1.083       .  S
C523        H531   1.087       .  S
C523        C524   1.346       .  D
C524        H532   1.084   1_554  S
C533        C541   1.491       .  S
C533        C534   1.404       .  A
C533        C538   1.409       .  A
C534        C535   1.398   1_556  A
C534        H543   1.083       .  S
C535        C536   1.408       .  A
C535        H544   1.081       .  S
C536        C539   1.490       .  S
C536        C537   1.403       .  A
C537        C538   1.400   1_554  A
C537        H545   1.083       .  S
C538        H546   1.080       .  S
C539        H547   1.087       .  S
C539        C540   1.346       .  D
C540        H548   1.084       .  S
C541        H549   1.087       .  S
C541        C542   1.346       .  D
C542        H550   1.083       .  S
C551        C559   1.486       .  S
C551        C552   1.403   1_455  A
C551        C556   1.409   1_455  A
C552        C553   1.395       .  A
C552        H561   1.084   1_655  S
C553        C554   1.406       .  A
C553        H562   1.082       .  S
C554        C557   1.486       .  S
C554        C555   1.404       .  A
C555        C556   1.401       .  A
C555        H563   1.083       .  S
C556        H564   1.081   1_655  S
C557        H565   1.087       .  S
C557        C558   1.345       .  D
C558        H566   1.085       .  S
C559        H567   1.087       .  S
C559        C560   1.345       .  D
C560        H568   1.084       .  S
C569        C577   1.492       .  S
C569        C570   1.404       .  A
C569        C574   1.409       .  A
C570        C571   1.399       .  A
C570        H579   1.084       .  S
C571        C572   1.409       .  A
C571        H580   1.080       .  S
C572        C575   1.489       .  S
C572        C573   1.402       .  A
C573        C574   1.397       .  A
C573        H581   1.084       .  S
C574        H582   1.079       .  S
C575        H583   1.087       .  S
C575        C576   1.345       .  D
C576        H584   1.083       .  S
C577        H585   1.087       .  S
C577        C578   1.346       .  D
C578        H586   1.082       .  S
C587        C595   1.490       .  S
C587        C588   1.404       .  A
C587        C592   1.407       .  A
C588        C589   1.402       .  A
C588        H597   1.083       .  S
C589        C590   1.410       .  A
C589        H598   1.080       .  S
C590        C593   1.492       .  S
C590        C591   1.404       .  A
C591        C592   1.397       .  A
C591        H599   1.083       .  S
C592        H600   1.081       .  S
C593        H601   1.087       .  S
C593        C594   1.346       .  D
C594        H602   1.082       .  S
C595        H603   1.087       .  S
C595        C596   1.347       .  D
C596        H604   1.084       .  S
C605        C613   1.483       .  S
C605        C606   1.402       .  A
C605        C610   1.407       .  A
C606        C607   1.396       .  A
C606        H615   1.084       .  S
C607        C608   1.406       .  A
C607        H616   1.082       .  S
C608        C611   1.484       .  S
C608        C609   1.404       .  A
C609        C610   1.399       .  A
C609        H617   1.083       .  S
C610        H618   1.082       .  S
C611        H619   1.087       .  S
C611        C612   1.345       .  D
C612        H620   1.085       .  S
C613        H621   1.087       .  S
C613        C614   1.344       .  D
C614        H622   1.085       .  S
C623        C631   1.489       .  S
C623        C624   1.403       .  A
C623        C628   1.408       .  A
C624        C625   1.397       .  A
C624        H633   1.084       .  S
C625        C626   1.408       .  A
C625        H634   1.080       .  S
C626        C629   1.488       .  S
C626        C627   1.403       .  A
C627        C628   1.398       .  A
C627        H635   1.084       .  S
C628        H636   1.080       .  S
C629        H637   1.087       .  S
C629        C630   1.345       .  D
C630        H638   1.083       .  S
C631        H639   1.088       .  S
C631        C632   1.345       .  D
C632        H640   1.083       .  S
C641        C649   1.481       .  S
C641        C642   1.401       .  A
C641        C646   1.406       .  A
C642        C643   1.396       .  A
C642        H651   1.084       .  S
C643        C644   1.409       .  A
C643        H652   1.080       .  S
C644        C647   1.486       .  S
C644        C645   1.403       .  A
C645        C646   1.396       .  A
C645        H653   1.084       .  S
C646        H654   1.081       .  S
C647        H655   1.087       .  S
C647        C648   1.344       .  D
C648        H656   1.083       .  S
C649        H657   1.087       .  S
C649        C650   1.343       .  D
C650        H658   1.085       .  S
C659        C667   1.489       .  S
C659        C660   1.405       .  A
C659        C664   1.408       .  A
C660        C661   1.399   1_565  A
C660        H669   1.083       .  S
C661        C662   1.407       .  A
C661        H670   1.081       .  S
C662        C665   1.486       .  S
C662        C663   1.403   1_545  A
C663        C664   1.397       .  A
C663        H671   1.084       .  S
C664        H672   1.080       .  S
C665        H673   1.087       .  S
C665        C666   1.345       .  D
C666        H674   1.084       .  S
C667        H675   1.087       .  S
C667        C668   1.347       .  D
C668        H676   1.083       .  S
C677        C685   1.485       .  S
C677        C678   1.403       .  A
C677        C682   1.408       .  A
C678        C679   1.396       .  A
C678        H687   1.084       .  S
C679        C680   1.406       .  A
C679        H688   1.082       .  S
C680        C683   1.481       .  S
C680        C681   1.402       .  A
C681        C682   1.398       .  A
C681        H689   1.084       .  S
C682        H690   1.081       .  S
C683        H691   1.087       .  S
C683        C684   1.343       .  D
C684        H692   1.086       .  S
C685        H693   1.087       .  S
C685        C686   1.345       .  D
C686        H694   1.084       .  S
C695        C703   1.483       .  S
C695        C696   1.402       .  A
C695        C700   1.408       .  A
C696        C697   1.396       .  A
C696        H705   1.083       .  S
C697        C698   1.407       .  A
C697        H706   1.082       .  S
C698        C701   1.482       .  S
C698        C699   1.402       .  A
C699        C700   1.397       .  A
C699        H707   1.084       .  S
C700        H708   1.081       .  S
C701        H709   1.087       .  S
C701        C702   1.343       .  D
C702        H710   1.085       .  S
C703        H711   1.087       .  S
C703        C704   1.343       .  D
C704        H712   1.084       .  S
C713        C721   1.482       .  S
C713        C714   1.402       .  A
C713        C718   1.406       .  A
C714        C715   1.398   1_565  A
C714        H723   1.083       .  S
C715        C716   1.407       .  A
C715        H724   1.082       .  S
C716        C719   1.484       .  S
C716        C717   1.403       .  A
C717        C718   1.399   1_545  A
C717        H725   1.083       .  S
C718        H726   1.082       .  S
C719        H727   1.087       .  S
C719        C720   1.344       .  D
C720        H728   1.086       .  S
C721        H729   1.087       .  S
C721        C722   1.345       .  D
C722        H730   1.086       .  S
C731        C739   1.489       .  S
C731        C732   1.404       .  A
C731        C736   1.408       .  A
C732        C733   1.400       .  A
C732        H741   1.083       .  S
C733        C734   1.408       .  A
C733        H742   1.081       .  S
C734        C737   1.487       .  S
C734        C735   1.403       .  A
C735        C736   1.398       .  A
C735        H743   1.083       .  S
C736        H744   1.081       .  S
C737        H745   1.087       .  S
C737        C738   1.345       .  D
C738        H746   1.085       .  S
C739        H747   1.087       .  S
C739        C740   1.346       .  D
C740        H748   1.084       .  S
C749        C757   1.487       .  S
C749        C750   1.403       .  A
C749        C754   1.407       .  A
C750        C751   1.398       .  A
C750        H759   1.084       .  S
C751        C752   1.409       .  A
C751        H760   1.080       .  S
C752        C755   1.490       .  S
C752        C753   1.404       .  A
C753        C754   1.398       .  A
C753        H761   1.083       .  S
C754        H762   1.081       .  S
C755        H763   1.087       .  S
C755        C756   1.346       .  D
C756        H764   1.083       .  S
C757        H765   1.087       .  S
C757        C758   1.345       .  D
C758        H766   1.084       .  S
C767        C775   1.482       .  S
C767        C768   1.402       .  A
C767        C772   1.407       .  A
C768        C769   1.396   1_455  A
C768        H777   1.084       .  S
C769        C770   1.408       .  A
C769        H778   1.081       .  S
C770        C773   1.483       .  S
C770        C771   1.402       .  A
C771        C772   1.395   1_655  A
C771        H779   1.084       .  S
C772        H780   1.081       .  S
C773        H781   1.087       .  S
C773        C774   1.343       .  D
C774        H782   1.084       .  S
C775        H783   1.087       .  S
C775        C776   1.342       .  D
C776        H784   1.084       .  S
