geometry optimzed in LAMMPS
_audit_creation_date              2020-11-30 
_audit_creation_method            'lammps2cif' 
_symmetry_space_group_name_H-M    'P1' 
_symmetry_Int_Tables_number       1 
_symmetry_cell_setting            triclinic 
loop_ 
_symmetry_equiv_pos_as_xyz 
  x,y,z 
_cell_length_a                    35.62954921 
_cell_length_b                    35.85044726894124 
_cell_length_c                    84.19075308936053 
_cell_angle_alpha                 89.95560970956716 
_cell_angle_beta                  90.09403162704021 
_cell_angle_gamma                 120.29396984576225 
loop_ 
_atom_site_label 
_atom_site_type_symbol 
_atom_site_fract_x 
_atom_site_fract_y 
_atom_site_fract_z 
_atom_site_charge 
Zn1        Zn  0.73468286  0.33273000  0.00930540     1.49700
Zn2        Zn  0.62976736  0.28599888  0.00948081     1.49400
Zn3        Zn  0.68954720  0.39025941  0.01214807     1.49100
Zn4        Zn  0.68608850  0.34386024  0.97969765     1.49500
O5          O  0.68462325  0.33790048  0.00276892    -1.83000
O6          O  0.71529939  0.27731926  0.02101232    -0.73700
O7          O  0.59542859  0.30339339  0.02423681    -0.73500
O8          O  0.74518458  0.42313728  0.02459584    -0.73000
O9          O  0.64314331  0.24494602  0.02195609    -0.73700
O10         O  0.77395580  0.38070022  0.02414024    -0.73300
O11         O  0.63994620  0.37417187  0.02743119    -0.73900
O12         O  0.68352879  0.39621000  0.97287264    -0.73300
O13         O  0.59246551  0.25324159  0.99009389    -0.74000
O14         O  0.68860196  0.43075396  0.99536785    -0.73400
O15         O  0.63422137  0.29307540  0.97006992    -0.73900
O16         O  0.74009038  0.34795159  0.97007001    -0.73800
O17         O  0.77133213  0.33520391  0.99056960    -0.73600
C18         C  0.67868398  0.24617571  0.02540497     0.78200
C19         C  0.60482146  0.33935829  0.03068141     0.78700
C20         C  0.77460239  0.41479920  0.02870690     0.77700
C21         C  0.68539378  0.42800879  0.98028510     0.78000
C22         C  0.59974726  0.26045020  0.97522519     0.79200
C23         C  0.77014686  0.34264870  0.97584745     0.78200
Zn24       Zn  0.61234201  0.27427539  0.49440744     1.49700
Zn25       Zn  0.66936147  0.37554650  0.48712451     1.49400
Zn26       Zn  0.67837529  0.33888815  0.52082127     1.49100
Zn27       Zn  0.71454854  0.31678854  0.48952839     1.49500
O28         O  0.66877011  0.32651056  0.49797448    -1.83000
O29         O  0.57306090  0.28737992  0.48141146    -0.73700
O30         O  0.67817178  0.42230332  0.50274915    -0.73500
O31         O  0.62885971  0.29177739  0.53334896    -0.73000
O32         O  0.61264611  0.35705433  0.47531804    -0.73700
O33         O  0.58214188  0.24808726  0.51510139    -0.73300
O34         O  0.68084970  0.39529353  0.52622995    -0.73900
O35         O  0.75826153  0.32496121  0.50668085    -0.73300
O36         O  0.71797882  0.40155006  0.47112266    -0.74000
O37         O  0.73459092  0.34250891  0.52824932    -0.73400
O38         O  0.74689933  0.35914702  0.47198756    -0.73900
O39         O  0.68982148  0.25719316  0.47978766    -0.73800
O40         O  0.61851564  0.22905299  0.48230076    -0.73600
C41         C  0.57738712  0.32079764  0.47442982     0.78200
C42         C  0.68105194  0.42502444  0.51783265     0.78700
C43         C  0.59291668  0.25854147  0.52955492     0.77700
C44         C  0.76227056  0.33551240  0.52130855     0.78000
C45         C  0.74528372  0.39112382  0.46622478     0.79200
C46         C  0.65098803  0.22662204  0.47741828     0.78200
N47         N  0.81716991  0.98856859  0.72758261    -0.35500
N48         N  0.83937933  0.05784694  0.75092273    -0.56100
N49         N  0.81612580  0.99454399  0.77601387    -0.35500
N50         N  0.80067183  0.92757215  0.75271506    -0.56100
C51         C  0.83847151  0.02450835  0.71852664     0.28100
C52         C  0.81657981  0.95571930  0.71938270     0.28100
C53         C  0.83343266  0.03159375  0.78455030     0.28100
C54         C  0.81554480  0.96382918  0.78554773     0.28100
C55         C  0.83885039  0.07809171  0.73743561     0.36700
C56         C  0.83656859  0.08080993  0.76315750     0.36700
C57         C  0.78639115  0.89966486  0.74034170     0.36700
C58         C  0.78764164  0.90325603  0.76603752     0.36700
C59         C  0.85183295  0.01440106  0.70450587    -0.20800
C60         C  0.83813900  0.97109988  0.70507235    -0.20800
C61         C  0.84388172  0.02427346  0.79966950    -0.20800
C62         C  0.83270600  0.98158350  0.80028415    -0.20800
C63         C  0.83571321  0.11411444  0.74111220    -0.21900
C64         C  0.83429825  0.11584885  0.75741638    -0.21900
C65         C  0.76430623  0.85746635  0.74584519    -0.21900
C66         C  0.76526935  0.85974999  0.76213106    -0.21900
C67         C  0.84325042  0.06535530  0.72195152    -0.17200
C68         C  0.79553708  0.91188502  0.72421701    -0.17200
C69         C  0.79755008  0.91961813  0.78167740    -0.17200
C70         C  0.83770436  0.07115162  0.77940941    -0.17200
H71         H  0.86947191  0.03595954  0.69479381     0.15700
H72         H  0.84351469  0.95305499  0.69595272     0.15700
H73         H  0.85795153  0.04727119  0.80930464     0.15700
H74         H  0.83640463  0.96536543  0.81050132     0.15700
H75         H  0.83433394  0.13668347  0.73293032     0.14000
H76         H  0.83167400  0.14001214  0.76422897     0.14000
H77         H  0.74940137  0.82806071  0.73889435     0.14000
H78         H  0.75120095  0.83247990  0.77017821     0.14000
H79         H  0.79960307  0.98565704  0.73782885     0.27200
H80         H  0.80100805  0.98931855  0.76501075     0.27200
N81         N  0.18753144  0.18461146  0.72792642    -0.35500
N82         N  0.15183491  0.20890995  0.75397097    -0.56100
N83         N  0.18489066  0.17018912  0.77667674    -0.35500
N84         N  0.22513961  0.15081251  0.75089658    -0.56100
C85         C  0.17870746  0.21319360  0.72075800     0.28100
C86         C  0.21854165  0.18302469  0.71920634     0.28100
C87         C  0.17407872  0.19324854  0.78640205     0.28100
C88         C  0.21302235  0.16221584  0.78475155     0.28100
C89         C  0.13249141  0.21725814  0.74174213     0.36700
C90         C  0.13125113  0.20989213  0.76729033     0.36700
C91         C  0.23379432  0.13720808  0.73716409     0.36700
C92         C  0.23236907  0.12954787  0.76269728     0.36700
C93         C  0.20457275  0.23009878  0.70739527    -0.20800
C94         C  0.22973716  0.21112253  0.70642644    -0.20800
C95         C  0.19517950  0.19973502  0.80085645    -0.20800
C96         C  0.22012799  0.18056964  0.79976176    -0.20800
C97         C  0.09930694  0.22324468  0.74732349    -0.21900
C98         C  0.09853312  0.21857587  0.76352139    -0.21900
C99         C  0.24598115  0.10674622  0.74024837    -0.21900
C100        C  0.24519743  0.10200300  0.75643872    -0.21900
C101        C  0.14726064  0.22361880  0.72586780    -0.17200
C102        C  0.23547837  0.15539746  0.72211484    -0.17200
C103        C  0.23123659  0.13763305  0.77903927    -0.17200
C104        C  0.14420799  0.20695017  0.78287445    -0.17200
H105        H  0.20577142  0.25411181  0.69929167     0.15700
H106        H  0.25384038  0.21766106  0.69738588     0.15700
H107        H  0.19313993  0.21689100  0.81108768     0.15700
H108        H  0.24125316  0.18049722  0.80898854     0.15700
H109        H  0.07832293  0.23092604  0.74049592     0.14000
H110        H  0.07692137  0.22204155  0.77161880     0.14000
H111        H  0.25540209  0.09031280  0.73176033     0.14000
H112        H  0.25380457  0.08121690  0.76286648     0.14000
H113        H  0.17033810  0.16410675  0.73735083     0.27200
H114        H  0.17033580  0.15693458  0.76575621     0.27200
N115        N  0.01595714  0.84986818  0.72771369    -0.35500
N116        N  0.07224782  0.86794424  0.75532284    -0.56100
N117        N  0.99473325  0.81920444  0.77476460    -0.35500
N118        N  0.93898449  0.79588097  0.74694916    -0.56100
C119        C  0.05519408  0.86771283  0.72045217     0.28100
C120        C  0.98514771  0.83282615  0.71624602     0.28100
C121        C  0.02681469  0.82576547  0.78500889     0.28100
C122        C  0.95720292  0.78600421  0.78053884     0.28100
C123        C  0.10181474  0.89504000  0.74466656     0.36700
C124        C  0.09029711  0.88131310  0.76985597     0.36700
C125        C  0.91910936  0.79760074  0.73349250     0.36700
C126        C  0.90808517  0.77943847  0.75836531     0.36700
C127        C  0.04900396  0.86274648  0.70412420    -0.20800
C128        C  0.00500747  0.84067820  0.70149807    -0.20800
C129        C  0.00963550  0.79622135  0.79734469    -0.20800
C130        C  0.96582810  0.77085034  0.79444298    -0.20800
C131        C  0.13917749  0.92536399  0.75241598    -0.21900
C132        C  0.13159618  0.91722262  0.76838954    -0.21900
C133        C  0.87533167  0.78182848  0.73634633    -0.21900
C134        C  0.86832302  0.77021873  0.75208355    -0.21900
C135        C  0.09635044  0.89124289  0.72801736    -0.17200
C136        C  0.93961507  0.81190553  0.71854166    -0.17200
C137        C  0.91505204  0.77138435  0.77424003    -0.17200
C138        C  0.07043906  0.85991327  0.78423543    -0.17200
H139        H  0.07338204  0.87460726  0.69489054     0.15700
H140        H  0.98948107  0.83179105  0.68996220     0.15700
H141        H  0.02688002  0.79345310  0.80745726     0.15700
H142        H  0.94286488  0.74467422  0.80190476     0.15700
H143        H  0.16858935  0.95108262  0.74714450     0.14000
H144        H  0.15417046  0.93578885  0.77774310     0.14000
H145        H  0.85096147  0.77915961  0.72800067     0.14000
H146        H  0.83751008  0.75686321  0.75820270     0.14000
H147        H  0.01045324  0.85280621  0.73959979     0.27200
H148        H  0.99742210  0.84002887  0.76566478     0.27200
C149        C  0.97234834  0.34436202  0.61131644     0.03400
C150        C  0.01618323  0.35752871  0.60766324     0.03300
C151        C  0.03839347  0.34261664  0.61732057    -0.17200
C152        C  0.01854746  0.31632723  0.63060969     0.03400
C153        C  0.97515890  0.30435116  0.63439438     0.03300
C154        C  0.95306751  0.31916486  0.62489229    -0.17200
H155        H  0.91973248  0.30957310  0.62778520     0.05400
H156        H  0.07222815  0.35319214  0.61510076     0.05400
C157        C  0.35010433  0.02635290  0.60336415     0.03400
C158        C  0.33524395  0.98174029  0.60516804     0.03300
C159        C  0.30935109  0.95949573  0.61839690    -0.17200
C160        C  0.29647664  0.98004065  0.62941599     0.03400
C161        C  0.30947967  0.02396305  0.62714535     0.03300
C162        C  0.33671474  0.04681463  0.61439212    -0.17200
H163        H  0.34531033  0.08011646  0.61256733     0.05400
H164        H  0.29937767  0.92586131  0.62031345     0.05400
C165        C  0.63003703  0.64405280  0.89321036     0.03400
C166        C  0.65564806  0.62406111  0.89424242     0.03300
C167        C  0.68843168  0.63441755  0.88279231    -0.17200
C168        C  0.69618898  0.66379573  0.87044050     0.03400
C169        C  0.67095398  0.68415061  0.86965547     0.03300
C170        C  0.63771832  0.67319225  0.88073123    -0.17200
H171        H  0.61800254  0.68828406  0.87975855     0.05400
H172        H  0.70765173  0.61874174  0.88323375     0.05400
C173        C  0.66809133  0.67979326  0.59704568     0.03400
C174        C  0.68735103  0.65356525  0.59762451     0.03300
C175        C  0.71711123  0.65998411  0.60980436    -0.17200
C176        C  0.72853260  0.69206532  0.62139985     0.03400
C177        C  0.70968428  0.71873801  0.62084344     0.03300
C178        C  0.68103947  0.71318152  0.60838234    -0.17200
H179        H  0.66852073  0.73506717  0.60775396     0.05400
H180        H  0.73099903  0.63917433  0.61042938     0.05400
C181        C  0.35510032  0.01973428  0.90330573     0.03400
C182        C  0.33769894  0.97470978  0.90145103     0.03300
C183        C  0.31073002  0.95335438  0.88838795    -0.17200
C184        C  0.29960218  0.97528995  0.87730244     0.03400
C185        C  0.31664987  0.02033902  0.87911459     0.03300
C186        C  0.34305891  0.04160379  0.89228593    -0.17200
H187        H  0.35417828  0.07558943  0.89386663     0.05400
H188        H  0.29811744  0.91901072  0.88683625     0.05400
C189        C  0.02668149  0.38935019  0.88503332     0.03400
C190        C  0.98060098  0.36584136  0.88467439     0.03300
C191        C  0.95909807  0.33632717  0.87214123    -0.17200
C192        C  0.98273833  0.33061028  0.85995624     0.03400
C193        C  0.02863147  0.35376425  0.86057636     0.03300
C194        C  0.04989228  0.38309781  0.87287391    -0.17200
H195        H  0.08514003  0.40114561  0.87300371     0.05400
H196        H  0.92393085  0.31932735  0.87144183     0.05400
Zn197      Zn  0.32745388  0.66425238  0.47877780     1.49700
Zn198      Zn  0.37631633  0.72105646  0.50990674     1.49400
Zn199      Zn  0.27366570  0.65731447  0.51046565     1.49100
Zn200      Zn  0.33832455  0.61952780  0.51038451     1.49500
O201        O  0.32885071  0.66547171  0.50226824    -1.83000
O202        O  0.37796358  0.72004927  0.46994988    -0.73700
O203        O  0.35485868  0.75291407  0.52343640    -0.73500
O204        O  0.23498278  0.65518800  0.49250669    -0.73000
O205        O  0.40949011  0.75912628  0.49160127    -0.73700
O206        O  0.27098271  0.65890322  0.47043439    -0.73300
O207        O  0.28374346  0.70696533  0.52463297    -0.73900
O208        O  0.28892843  0.57923980  0.52459862    -0.73300
O209        O  0.41900430  0.71336123  0.52322342    -0.74000
O210        O  0.24166755  0.60241757  0.52351373    -0.73400
O211        O  0.39488036  0.64288254  0.52286103    -0.73900
O212        O  0.33842234  0.58270048  0.49244153    -0.73800
O213        O  0.33140863  0.61290819  0.47037654    -0.73600
C214        C  0.40717569  0.75467002  0.47658589     0.78200
C215        C  0.31718157  0.74258698  0.52848426     0.78700
C216        C  0.23787966  0.65611999  0.47742216     0.77700
C217        C  0.25265586  0.57557911  0.52838450     0.78000
C218        C  0.42278273  0.68115222  0.52717922     0.79200
C219        C  0.33510239  0.58334900  0.47741117     0.78200
Zn220      Zn  0.33244316  0.65925903  0.97795688     1.49700
Zn221      Zn  0.38474354  0.65681887  0.00847038     1.49400
Zn222      Zn  0.32671585  0.70150101  0.01093795     1.49100
Zn223      Zn  0.28121103  0.59843105  0.00782455     1.49500
O224        O  0.33114580  0.65399041  0.00125620    -1.83000
O225        O  0.38632769  0.66134487  0.96869915    -0.73700
O226        O  0.41654276  0.70508619  0.02407094    -0.73500
O227        O  0.32695523  0.74169429  0.99417407    -0.73000
O228        O  0.42464948  0.66503344  0.99013585    -0.73700
O229        O  0.33188619  0.71356318  0.97126598    -0.73300
O230        O  0.37629857  0.73612759  0.02639041    -0.73900
O231        O  0.23871144  0.60742020  0.02095782    -0.73300
O232        O  0.37239183  0.60266510  0.02008870    -0.74000
O233        O  0.27010727  0.67884347  0.02271147    -0.73400
O234        O  0.30031446  0.56292359  0.02062957    -0.73900
O235        O  0.24813542  0.56352315  0.98864567    -0.73800
O236        O  0.27976778  0.60787916  0.96820950    -0.73600
C237        C  0.42033464  0.66461234  0.97511303     0.78200
C238        C  0.40942364  0.73330416  0.03022632     0.78700
C239        C  0.32902226  0.74251730  0.97908128     0.77700
C240        C  0.23855642  0.64109820  0.02566790     0.78000
C241        C  0.33765918  0.56875815  0.02428231     0.79200
C242        C  0.25018575  0.57201171  0.97387965     0.78200
N243        N  0.98680568  0.16755811  0.22504677    -0.35500
N244        N  0.05784994  0.20629259  0.24797157    -0.56100
N245        N  0.99497343  0.18136422  0.27364076    -0.35500
N246        N  0.92417357  0.14598280  0.25042811    -0.56100
C247        C  0.02102309  0.18574001  0.21497082     0.28100
C248        C  0.95017005  0.15410747  0.21634764     0.28100
C249        C  0.03217702  0.20953463  0.28125511     0.28100
C250        C  0.96145575  0.17744590  0.28248596     0.28100
C251        C  0.08038878  0.20658637  0.23498698     0.36700
C252        C  0.08494726  0.21609835  0.26055904     0.36700
C253        C  0.89655244  0.12345127  0.23849327     0.36700
C254        C  0.90083033  0.13236636  0.26397304     0.36700
C255        C  0.00579538  0.18348508  0.19960359    -0.20800
C256        C  0.96123892  0.16367829  0.20048167    -0.20800
C257        C  0.02204919  0.22377103  0.29504248    -0.20800
C258        C  0.97745609  0.20335659  0.29585380    -0.20800
C259        C  0.12218634  0.21722998  0.23935448    -0.21900
C260        C  0.12504315  0.22317330  0.25551518    -0.21900
C261        C  0.85537981  0.09578504  0.24449506    -0.21900
C262        C  0.85812803  0.10135548  0.26063987    -0.21900
C263        C  0.06492214  0.20022624  0.21911798    -0.17200
C264        C  0.90706673  0.12974123  0.22217712    -0.17200
C265        C  0.91680536  0.14947085  0.27918744    -0.17200
C266        C  0.07485193  0.22122263  0.27638809    -0.17200
H267        H  0.02443427  0.19366624  0.18873419     0.15700
H268        H  0.93956000  0.15589704  0.19044041     0.15700
H269        H  0.04439253  0.24662112  0.30364546     0.15700
H270        H  0.95893088  0.20728660  0.30520764     0.15700
H271        H  0.14818804  0.22087789  0.23169173     0.14000
H272        H  0.15354096  0.23193351  0.26269137     0.14000
H273        H  0.82621877  0.07413774  0.23794327     0.14000
H274        H  0.83158969  0.08469476  0.26894659     0.14000
H275        H  0.98803504  0.15974625  0.23680364     0.27200
H276        H  0.99244049  0.16224569  0.26395499     0.27200
N277        N  0.82448864  0.82295474  0.27325479    -0.35500
N278        N  0.78322605  0.84896399  0.24903878    -0.56100
N279        N  0.82468517  0.82573140  0.22464086    -0.35500
N280        N  0.87050601  0.80540434  0.24862275    -0.56100
C281        C  0.81131019  0.84608105  0.28192836     0.28100
C282        C  0.85604853  0.82137404  0.28171234     0.28100
C283        C  0.80945886  0.84736366  0.21611829     0.28100
C284        C  0.85645907  0.82557755  0.21590720     0.28100
C285        C  0.76183701  0.85013292  0.26209374     0.36700
C286        C  0.76016413  0.84947066  0.23633686     0.36700
C287        C  0.88176916  0.78985455  0.26125305     0.36700
C288        C  0.88240124  0.79201163  0.23556960     0.36700
C289        C  0.83501870  0.85948575  0.29595490    -0.20800
C290        C  0.86298216  0.84365116  0.29585706    -0.20800
C291        C  0.83200643  0.86130589  0.20190345    -0.20800
C292        C  0.86177351  0.84773387  0.20180330    -0.20800
C293        C  0.72491543  0.85122580  0.25771220    -0.21900
C294        C  0.72346802  0.85012107  0.24138153    -0.21900
C295        C  0.90092766  0.76654076  0.25621290    -0.21900
C296        C  0.90136203  0.76794315  0.23990748    -0.21900
C297        C  0.77732876  0.85396436  0.27779701    -0.17200
C298        C  0.87795897  0.79932027  0.27722020    -0.17200
C299        C  0.87894087  0.80370970  0.21987733    -0.17200
C300        C  0.77414588  0.85276523  0.22039782    -0.17200
H301        H  0.83274893  0.87892469  0.30530829     0.15700
H302        H  0.88624132  0.84853548  0.30507453     0.15700
H303        H  0.82753304  0.87944341  0.19255049     0.15700
H304        H  0.88460687  0.85340775  0.19235131     0.15700
H305        H  0.70157141  0.85279043  0.26547985     0.14000
H306        H  0.69849113  0.85034533  0.23413388     0.14000
H307        H  0.91380953  0.75070753  0.26350693     0.14000
H308        H  0.91457816  0.75335154  0.23215473     0.14000
H309        H  0.80990425  0.80572074  0.26292020     0.27200
H310        H  0.81076160  0.80778362  0.23488687     0.27200
C311        C  0.68627045  0.01102470  0.40445950     0.03400
C312        C  0.65324258  0.96772668  0.40170554     0.03300
C313        C  0.65607498  0.94615370  0.38812618    -0.17200
C314        C  0.69066303  0.96662601  0.37731070     0.03400
C315        C  0.72247268  0.01064029  0.37988620     0.03300
C316        C  0.72049652  0.03150148  0.39361122    -0.17200
H317        H  0.74538988  0.06491802  0.39561799     0.05400
H318        H  0.63229326  0.91234833  0.38630337     0.05400
N319        N  0.19452980  0.00012012  0.27765283    -0.35500
N320        N  0.24546308  0.06827844  0.25476552    -0.56100
N321        N  0.20102059  0.00736731  0.22925493    -0.35500
N322        N  0.15386724  0.93920261  0.25216703    -0.56100
C323        C  0.22499952  0.03080056  0.28720228     0.28100
C324        C  0.17571604  0.96246596  0.28585240     0.28100
C325        C  0.23359655  0.04114151  0.22149479     0.28100
C326        C  0.18859783  0.97192055  0.22017445     0.28100
C327        C  0.25486133  0.09211957  0.26814454     0.36700
C328        C  0.25622183  0.09624579  0.24252292     0.36700
C329        C  0.12867238  0.91463029  0.26425361     0.36700
C330        C  0.13464537  0.91767839  0.23868990     0.36700
C331        C  0.22565019  0.01244195  0.30162652    -0.20800
C332        C  0.19414844  0.96953485  0.30087148    -0.20800
C333        C  0.24235272  0.02717535  0.20738785    -0.20800
C334        C  0.21419402  0.98329994  0.20661890    -0.20800
C335        C  0.27209556  0.13540787  0.26438271    -0.21900
C336        C  0.27279112  0.13799909  0.24812065    -0.21900
C337        C  0.09315880  0.87730301  0.25842405    -0.21900
C338        C  0.09691838  0.87926651  0.24219813    -0.21900
C339        C  0.24947886  0.07549909  0.28369138    -0.17200
C340        C  0.14056776  0.92277187  0.28038200    -0.17200
C341        C  0.15299511  0.93032299  0.22344864    -0.17200
C342        C  0.25325460  0.08459951  0.22640552    -0.17200
H343        H  0.24607809  0.02842737  0.31180774     0.15700
H344        H  0.18568041  0.94657718  0.31045273     0.15700
H345        H  0.26647594  0.04662479  0.19857832     0.15700
H346        H  0.21254890  0.96235279  0.19706557     0.15700
H347        H  0.28272931  0.16231567  0.27248824     0.14000
H348        H  0.28430641  0.16729652  0.24125053     0.14000
H349        H  0.06796902  0.85073220  0.26514469     0.14000
H350        H  0.07493238  0.85472557  0.23396742     0.14000
H351        H  0.18363887  0.00572226  0.26695110     0.27200
H352        H  0.18476022  0.00953489  0.23915829     0.27200
C353        C  0.62991830  0.01499839  0.11095059     0.03400
C354        C  0.60256255  0.97019316  0.11359265     0.03300
C355        C  0.60999550  0.95098606  0.12691298    -0.17200
C356        C  0.64483418  0.97507377  0.13729212     0.03400
C357        C  0.67205900  0.02008270  0.13469025     0.03300
C358        C  0.66455564  0.03920839  0.12146015    -0.17200
H359        H  0.68527071  0.07366412  0.11958004     0.05400
H360        H  0.58894289  0.91674317  0.12910492     0.05400
C361        C  0.35343804  0.33684812  0.39712413     0.03400
C362        C  0.33020843  0.35932819  0.39698140     0.03300
C363        C  0.29495654  0.34625167  0.38645823    -0.17200
C364        C  0.28240627  0.31147942  0.37606429     0.03400
C365        C  0.30460394  0.28818692  0.37655917     0.03300
C366        C  0.34031005  0.30153416  0.38674785    -0.17200
H367        H  0.35738702  0.28367218  0.38673825     0.05400
H368        H  0.27768614  0.36394629  0.38610357     0.05400
C369        C  0.35073954  0.31414866  0.10159202     0.03400
C370        C  0.33099051  0.33990229  0.10186642     0.03300
C371        C  0.30431532  0.33633879  0.11482440    -0.17200
C372        C  0.29391086  0.30546435  0.12678098     0.03400
C373        C  0.31251441  0.27861802  0.12620013     0.03300
C374        C  0.34045691  0.28327273  0.11365443    -0.17200
H375        H  0.35397105  0.26213806  0.11321108     0.05400
H376        H  0.29059189  0.35726565  0.11547413     0.05400
C377        C  0.01959040  0.65172675  0.39256799     0.03400
C378        C  0.97371205  0.62886886  0.39190726     0.03300
C379        C  0.95264314  0.63933082  0.38002826    -0.17200
C380        C  0.97612044  0.67198083  0.36886315     0.03400
C381        C  0.02224959  0.69356831  0.36913029     0.03300
C382        C  0.04319263  0.68377222  0.38117315    -0.17200
H383        H  0.07842459  0.70041609  0.38138037     0.05400
H384        H  0.91747146  0.62344623  0.37990965     0.05400
C385        C  0.99304853  0.67602554  0.09823514     0.03400
C386        C  0.03846468  0.70435823  0.09732389     0.03300
C387        C  0.05931380  0.73565349  0.10913287    -0.17200
C388        C  0.03628757  0.73925509  0.12190943     0.03400
C389        C  0.99052979  0.71152472  0.12267315     0.03300
C390        C  0.96978669  0.67961847  0.11104856    -0.17200
H391        H  0.93472945  0.65905321  0.11149196     0.05400
H392        H  0.09420145  0.75731675  0.10846554     0.05400
C393        C  0.11089650  0.82910111  0.30938497     0.19800
C394        C  0.13276071  0.82459324  0.32242369    -0.18300
C395        C  0.11109920  0.78995486  0.33290417    -0.10600
C396        C  0.06721759  0.75871975  0.33034765     0.22000
C397        C  0.04600090  0.76207673  0.31682638    -0.19900
C398        C  0.06740231  0.79728539  0.30653204    -0.10800
C399        C  0.04243207  0.72287238  0.34168527    -0.14900
C400        C  0.05029550  0.72708286  0.35742106    -0.28800
C401        C  0.13480769  0.86647906  0.29866961    -0.03100
C402        C  0.11615137  0.88682001  0.29174144    -0.39600
H403        H  0.16652858  0.84836286  0.32464348     0.13200
H404        H  0.12892999  0.78757234  0.34288618     0.12800
H405        H  0.01241968  0.73799701  0.31446180     0.12200
H406        H  0.05013596  0.79927975  0.29627051     0.12500
H407        H  0.01457857  0.69358982  0.33716306     0.15200
H408        H  0.07812031  0.75604895  0.36210075     0.14000
H409        H  0.16929702  0.87872934  0.29686862     0.11700
H410        H  0.08179232  0.87523829  0.29345618     0.13700
C411        C  0.07424415  0.80396791  0.16108928     0.19800
C412        C  0.06090683  0.79397840  0.17696386    -0.18300
C413        C  0.07636010  0.82633807  0.18847925    -0.10600
C414        C  0.10571959  0.86943495  0.18433581     0.22000
C415        C  0.11811897  0.87984513  0.16847065    -0.19900
C416        C  0.10288451  0.84749367  0.15694147    -0.10800
C417        C  0.12426663  0.90389878  0.19642014    -0.14900
C418        C  0.13539826  0.89686931  0.21086209    -0.28800
C419        C  0.05545436  0.76828320  0.14928846    -0.03100
C420        C  0.06143587  0.77411653  0.13352393    -0.39600
H421        H  0.03811312  0.76103109  0.18046084     0.13200
H422        H  0.06510389  0.81765698  0.20059152     0.12800
H423        H  0.14044996  0.91299160  0.16505537     0.12200
H424        H  0.11396594  0.85728345  0.14493121     0.12500
H425        H  0.13065612  0.93594349  0.19319432     0.15200
H426        H  0.12954982  0.86492993  0.21393392     0.14000
H427        H  0.03320259  0.73593245  0.15366398     0.11700
H428        H  0.08512104  0.80503601  0.12860475     0.13700
C429        C  0.29533584  0.20417089  0.34589118     0.19800
C430        C  0.32471099  0.19696076  0.33721049    -0.18300
C431        C  0.30986207  0.16488428  0.32552615    -0.10600
C432        C  0.26514828  0.13950849  0.32224581     0.22000
C433        C  0.23576040  0.14596389  0.33113285    -0.19900
C434        C  0.25051393  0.17811934  0.34268791    -0.10800
C435        C  0.24756737  0.10621334  0.30964029    -0.14900
C436        C  0.27045134  0.10694665  0.29686729    -0.28800
C437        C  0.31287856  0.24061885  0.35741777    -0.03100
C438        C  0.28781698  0.24766356  0.36744506    -0.39600
H439        H  0.35933761  0.21646867  0.33938561     0.13200
H440        H  0.33343273  0.16002076  0.31918646     0.12800
H441        H  0.20116299  0.12678852  0.32881986     0.12200
H442        H  0.22634148  0.18271395  0.34862356     0.12500
H443        H  0.21330187  0.08171690  0.31026566     0.15200
H444        H  0.30345417  0.13336849  0.29515310     0.14000
H445        H  0.34752330  0.26392334  0.35707676     0.11700
H446        H  0.25314319  0.22559368  0.36812132     0.13700
C447        C  0.26413246  0.15270568  0.18942085     0.19800
C448        C  0.24708443  0.14199377  0.17400527    -0.18300
C449        C  0.26041758  0.17372794  0.16229018    -0.10600
C450        C  0.29104496  0.21703642  0.16581926     0.22000
C451        C  0.30701886  0.22799001  0.18137751    -0.19900
C452        C  0.29388357  0.19615780  0.19308566    -0.10800
C453        C  0.30477816  0.25178020  0.15381869    -0.14900
C454        C  0.30293603  0.24448907  0.13810106    -0.28800
C455        C  0.24856279  0.11796386  0.20146748    -0.03100
C456        C  0.27183906  0.11945424  0.21428301    -0.39600
H457        H  0.22338769  0.10888498  0.17100782     0.13200
H458        H  0.24587547  0.16430408  0.15062124     0.12800
H459        H  0.32974189  0.26129387  0.18447620     0.12200
H460        H  0.30635866  0.20586495  0.20501329     0.12500
H461        H  0.31655007  0.28449841  0.15803152     0.15200
H462        H  0.29569208  0.21310636  0.13368342     0.14000
H463        H  0.21677210  0.08951469  0.19957927     0.11700
H464        H  0.30370188  0.14736540  0.21645151     0.13700
C465        C  0.93954550  0.73327407  0.34071921     0.19800
C466        C  0.96391571  0.77179945  0.33216331    -0.18300
C467        C  0.94536242  0.78209304  0.31947529    -0.10600
C468        C  0.90150937  0.75451239  0.31538638     0.22000
C469        C  0.87672168  0.71673452  0.32429245    -0.19900
C470        C  0.89557089  0.70593290  0.33674129    -0.10800
C471        C  0.88001327  0.76547893  0.30257395    -0.14900
C472        C  0.90098986  0.78875891  0.28965034    -0.28800
C473        C  0.96115280  0.72280653  0.35365274    -0.03100
C474        C  0.95071952  0.68210696  0.35733815    -0.39600
H475        H  0.99767283  0.79372235  0.33516265     0.13200
H476        H  0.96508844  0.81210576  0.31316447     0.12800
H477        H  0.84267230  0.69538419  0.32154748     0.12200
H478        H  0.87545476  0.67663815  0.34338491     0.12500
H479        H  0.84523492  0.75290669  0.30355547     0.15200
H480        H  0.93479626  0.79836288  0.28767070     0.14000
H481        H  0.98898267  0.74960734  0.35941761     0.11700
H482        H  0.92268563  0.65497394  0.35183212     0.13700
C483        C  0.94425543  0.75811291  0.15295791     0.19800
C484        C  0.96655454  0.79489341  0.16255767    -0.18300
C485        C  0.94687076  0.79980720  0.17609136    -0.10600
C486        C  0.90403168  0.76835602  0.18004099     0.22000
C487        C  0.88121404  0.73228251  0.17013331    -0.19900
C488        C  0.90128917  0.72687365  0.15678844    -0.10800
C489        C  0.88145070  0.77398550  0.19375011    -0.14900
C490        C  0.90217514  0.79501932  0.20706622    -0.28800
C491        C  0.96689990  0.75332231  0.13910799    -0.03100
C492        C  0.96276219  0.71519359  0.13498681    -0.39600
H493        H  0.99950590  0.81962675  0.15968337     0.13200
H494        H  0.96482308  0.82870149  0.18320161     0.12800
H495        H  0.84787615  0.70813279  0.17279074     0.12200
H496        H  0.88300234  0.69870839  0.14935341     0.12500
H497        H  0.84649585  0.76050719  0.19288157     0.15200
H498        H  0.93627892  0.80538772  0.20879709     0.14000
H499        H  0.99096284  0.78260177  0.13316187     0.11700
H500        H  0.93852389  0.68567379  0.14074539     0.13700
C501        C  0.73144454  0.92045844  0.34424406     0.19800
C502        C  0.76556043  0.94274492  0.33344248    -0.18300
C503        C  0.76961467  0.92173012  0.32015591    -0.10600
C504        C  0.74016853  0.87758496  0.31760869     0.22000
C505        C  0.70649691  0.85496807  0.32859109    -0.19900
C506        C  0.70167424  0.87639022  0.34168447    -0.10800
C507        C  0.74685190  0.85429882  0.30435074    -0.14900
C508        C  0.76123932  0.87260483  0.29000892    -0.28800
C509        C  0.72935885  0.94371303  0.35845088    -0.03100
C510        C  0.69216163  0.94031837  0.36381513    -0.39600
H511        H  0.78916677  0.97657104  0.33530207     0.13200
H512        H  0.79670265  0.93968844  0.31216844     0.12800
H513        H  0.68398714  0.82074074  0.32702992     0.12200
H514        H  0.67562128  0.85828987  0.35004893     0.12500
H515        H  0.74192218  0.82229001  0.30664325     0.15200
H516        H  0.76287425  0.90300388  0.28725123     0.14000
H517        H  0.76003241  0.96631750  0.36402506     0.11700
H518        H  0.66153016  0.91674184  0.35841509     0.13700
C519        C  0.72744367  0.90682319  0.19334302     0.19800
C520        C  0.69457913  0.91720832  0.19479976    -0.18300
C521        C  0.68090907  0.93090332  0.18154563    -0.10600
C522        C  0.70083532  0.93559113  0.16667122     0.22000
C523        C  0.73400336  0.92556885  0.16529859    -0.19900
C524        C  0.74688455  0.91086360  0.17844279    -0.10800
C525        C  0.69070381  0.95457362  0.15278547    -0.14900
C526        C  0.65202244  0.95187016  0.15050892    -0.28800
C527        C  0.74306608  0.89441466  0.20761178    -0.03100
C528        C  0.75232572  0.86242693  0.20718102    -0.39600
H529        H  0.67961513  0.91486779  0.20622752     0.13200
H530        H  0.65610219  0.93952785  0.18313404     0.12800
H531        H  0.75031948  0.92957502  0.15404436     0.12200
H532        H  0.77308504  0.90408815  0.17707658     0.12500
H533        H  0.71633763  0.97197668  0.14412074     0.15200
H534        H  0.62464767  0.93134259  0.15809994     0.14000
H535        H  0.74774520  0.91251429  0.21848769     0.11700
H536        H  0.74761553  0.84509777  0.19608486     0.13700
C537        C  0.78712667  0.06271447  0.34153929     0.19800
C538        C  0.77734960  0.07387715  0.32677294    -0.18300
C539        C  0.80926620  0.09313849  0.31504826    -0.10600
C540        C  0.85187146  0.10163264  0.31788380     0.22000
C541        C  0.86158206  0.09052025  0.33267760    -0.19900
C542        C  0.82969890  0.07129774  0.34438390    -0.10800
C543        C  0.88630521  0.11912529  0.30550939    -0.14900
C544        C  0.88432364  0.13825542  0.29205477    -0.28800
C545        C  0.75150148  0.03918190  0.35316809    -0.03100
C546        C  0.75841948  0.03668955  0.36872493    -0.39600
H547        H  0.74465658  0.06698846  0.32419603     0.13200
H548        H  0.79975287  0.09983740  0.30369741     0.12800
H549        H  0.89386541  0.09602515  0.33510080     0.12200
H550        H  0.83829949  0.06181899  0.35537093     0.12500
H551        H  0.91433265  0.11519499  0.30736476     0.15200
H552        H  0.85689394  0.14258987  0.28962215     0.14000
H553        H  0.71825295  0.02287496  0.34877469     0.11700
H554        H  0.79072941  0.05602808  0.37372701     0.13700
C555        C  0.81805564  0.10954713  0.19169836     0.19800
C556        C  0.81705097  0.12962700  0.17753175    -0.18300
C557        C  0.78070586  0.10992452  0.16754412    -0.10600
C558        C  0.74437107  0.07002748  0.17173362     0.22000
C559        C  0.74456705  0.05108148  0.18629025    -0.19900
C560        C  0.78113854  0.07037816  0.19613227    -0.10800
C561        C  0.70609902  0.04676707  0.16115971    -0.14900
C562        C  0.70918530  0.04836508  0.14521685    -0.28800
C563        C  0.85735088  0.13075997  0.20189041    -0.03100
C564        C  0.87041413  0.10821830  0.21075833    -0.39600
H565        H  0.84477650  0.16026149  0.17405755     0.13200
H566        H  0.78105667  0.12611131  0.15664662     0.12800
H567        H  0.71664466  0.02081353  0.18992093     0.12200
H568        H  0.78021737  0.05485871  0.20727564     0.12500
H569        H  0.67511374  0.02455254  0.16664501     0.15200
H570        H  0.73975965  0.07067438  0.13953118     0.14000
H571        H  0.87657759  0.16583929  0.20190823     0.11700
H572        H  0.85204559  0.07315031  0.21069081     0.13700
C573        C  0.21325820  0.27931306  0.33755614     0.19800
C574        C  0.22292237  0.28905165  0.32139476    -0.18300
C575        C  0.18978799  0.27302640  0.30996932    -0.10600
C576        C  0.14605406  0.24637616  0.31447251     0.22000
C577        C  0.13652163  0.23627552  0.33063558    -0.19900
C578        C  0.16963378  0.25264701  0.34206966    -0.10800
C579        C  0.10973784  0.22678038  0.30271998    -0.14900
C580        C  0.11167044  0.24245189  0.28798064    -0.28800
C581        C  0.24958835  0.29436684  0.34915731    -0.03100
C582        C  0.24587545  0.30004851  0.36479159    -0.39600
H583        H  0.25634957  0.30882841  0.31757021     0.13200
H584        H  0.19887573  0.28058800  0.29763766     0.12800
H585        H  0.10325927  0.21533052  0.33443199     0.12200
H586        H  0.16107243  0.24324846  0.35434109     0.12500
H587        H  0.07971004  0.19840635  0.30646422     0.15200
H588        H  0.14123804  0.27066758  0.28392746     0.14000
H589        H  0.28096552  0.30112683  0.34462277     0.11700
H590        H  0.21636734  0.29783365  0.36938124     0.13700
C591        C  0.19860073  0.25928650  0.15708001     0.19800
C592        C  0.17343668  0.21805485  0.16378679    -0.18300
C593        C  0.14487739  0.21103131  0.17631080    -0.10600
C594        C  0.14073197  0.24525705  0.18247016     0.22000
C595        C  0.16522669  0.28635875  0.17557548    -0.19900
C596        C  0.19403164  0.29345990  0.16307046    -0.10800
C597        C  0.10995668  0.23876933  0.19557579    -0.14900
C598        C  0.09611206  0.20641818  0.20621271    -0.28800
C599        C  0.22835442  0.26457998  0.14373898    -0.03100
C600        C  0.26322866  0.30244627  0.13943146    -0.39600
H601        H  0.17594908  0.19105258  0.15932728     0.13200
H602        H  0.12554200  0.17855141  0.18088285     0.12800
H603        H  0.16213978  0.31312884  0.17991328     0.12200
H604        H  0.21188763  0.32548852  0.15800411     0.12500
H605        H  0.09879786  0.26181840  0.19673565     0.15200
H606        H  0.10944047  0.18508824  0.20619093     0.14000
H607        H  0.22253760  0.23539662  0.13766360     0.11700
H608        H  0.26952037  0.33237325  0.14495115     0.13700
C609        C  0.30849050  0.46654972  0.04902008     0.19800
C610        C  0.26939923  0.43459854  0.05573981    -0.18300
C611        C  0.26899033  0.40510070  0.06664130    -0.10600
C612        C  0.30762172  0.40643393  0.07109599     0.22000
C613        C  0.34687883  0.43756271  0.06401628    -0.19900
C614        C  0.34727955  0.46721444  0.05303791    -0.10800
C615        C  0.30475268  0.37568882  0.08358192    -0.14900
C616        C  0.33780787  0.37079440  0.08880998    -0.28800
C617        C  0.30676747  0.49856072  0.03819583    -0.03100
C618        C  0.34159284  0.53629859  0.03386179    -0.39600
H619        H  0.23898782  0.43297690  0.05281006     0.13200
H620        H  0.23821711  0.38145510  0.07181755     0.12800
H621        H  0.37744172  0.43980607  0.06701766     0.12200
H622        H  0.37805270  0.49045000  0.04784054     0.12500
H623        H  0.27286128  0.35542008  0.08881807     0.15200
H624        H  0.36953213  0.38812621  0.08328257     0.14000
H625        H  0.27480777  0.49167578  0.03427509     0.11700
H626        H  0.37391854  0.54479878  0.03779706     0.13700
C627        C  0.15928510  0.66643832  0.04807081     0.19800
C628        C  0.15031861  0.70029280  0.04726252    -0.18300
C629        C  0.11824038  0.70012472  0.05684536    -0.10600
C630        C  0.09484465  0.66627639  0.06768123     0.22000
C631        C  0.10275288  0.63172299  0.06812571    -0.19900
C632        C  0.13482415  0.63185452  0.05852537    -0.10800
C633        C  0.06308005  0.66658013  0.07901002    -0.14900
C634        C  0.06598220  0.70335111  0.08430618    -0.28800
C635        C  0.19594757  0.66975284  0.03852913    -0.03100
C636        C  0.20075609  0.63585978  0.03478977    -0.39600
H637        H  0.16846810  0.72719808  0.03925763     0.13200
H638        H  0.11206445  0.72662824  0.05576002     0.12800
H639        H  0.08508405  0.60521754  0.07633455     0.12200
H640        H  0.14123445  0.60556895  0.05978339     0.12500
H641        H  0.03924470  0.63602550  0.08428974     0.15200
H642        H  0.09285614  0.73423329  0.08047004     0.14000
H643        H  0.21981480  0.70164852  0.03421625     0.11700
H644        H  0.17618333  0.60333306  0.03813804     0.13700
C645        C  0.52812804  0.87717609  0.08501455     0.19800
C646        C  0.51367026  0.83283868  0.08456652    -0.18300
C647        C  0.48490557  0.80647497  0.07277107    -0.10600
C648        C  0.47026613  0.82403233  0.06100072     0.22000
C649        C  0.48429859  0.86826899  0.06149994    -0.19900
C650        C  0.51327094  0.89475144  0.07328407    -0.10800
C651        C  0.43974973  0.79665692  0.04831685    -0.14900
C652        C  0.44029376  0.76212986  0.04238159    -0.28800
C653        C  0.56021620  0.90400303  0.09741727    -0.03100
C654        C  0.56754056  0.94304018  0.10207597    -0.39600
H655        H  0.52457527  0.81846881  0.09343299     0.13200
H656        H  0.47377684  0.77226583  0.07302664     0.12800
H657        H  0.47348026  0.88251737  0.05255600     0.12200
H658        H  0.52456677  0.92895185  0.07288254     0.12500
H659        H  0.41741538  0.80594164  0.04340528     0.15200
H660        H  0.46468366  0.75464249  0.04646444     0.14000
H661        H  0.57899423  0.89106836  0.10281560     0.11700
H662        H  0.54889702  0.95620410  0.09686904     0.13700
C663        C  0.32085002  0.43755847  0.42586111     0.19800
C664        C  0.29613698  0.43155353  0.43956904    -0.18300
C665        C  0.30204888  0.46701160  0.44847793    -0.10600
C666        C  0.33229331  0.50934498  0.44364893     0.22000
C667        C  0.35654279  0.51538512  0.42979107    -0.19900
C668        C  0.35127111  0.47982125  0.42105228    -0.10800
C669        C  0.33721749  0.54747582  0.45244441    -0.14900
C670        C  0.33378428  0.54746656  0.46833798    -0.23200
C671        C  0.31154866  0.39946701  0.41609653    -0.03100
C672        C  0.34201280  0.39665810  0.40763297    -0.39600
H673        H  0.27197358  0.39931200  0.44333170     0.13200
H674        H  0.28193760  0.46128028  0.45885305     0.12800
H675        H  0.37954754  0.54768936  0.42571883     0.12200
H676        H  0.36988271  0.48546599  0.41026434     0.12500
H677        H  0.34461873  0.57631311  0.44574751     0.15200
H678        H  0.32960435  0.51978273  0.47509018     0.14000
H679        H  0.27840104  0.37231482  0.41605954     0.11700
H680        H  0.37587738  0.42182150  0.40859267     0.13700
C681        C  0.10429621  0.66192716  0.42361142     0.19800
C682        C  0.12161327  0.68701605  0.43734884    -0.18300
C683        C  0.15053861  0.68176792  0.44706164    -0.10600
C684        C  0.16351313  0.65182891  0.44303878     0.22000
C685        C  0.14624922  0.62679470  0.42925188    -0.19900
C686        C  0.11651918  0.63138801  0.41971646    -0.10800
C687        C  0.19731863  0.64856052  0.45236994    -0.14900
C688        C  0.20223194  0.65553158  0.46814602    -0.28800
C689        C  0.07714785  0.67125172  0.41275805    -0.03100
C690        C  0.04358836  0.64060513  0.40435617    -0.39600
H691        H  0.11317477  0.71119617  0.44045282     0.13200
H692        H  0.16405736  0.70246446  0.45734476     0.12800
H693        H  0.15614660  0.60394602  0.42577142     0.12200
H694        H  0.10453299  0.61236027  0.40896825     0.12500
H695        H  0.21841056  0.63980817  0.44610364     0.15200
H696        H  0.17918060  0.66109132  0.47463502     0.14000
H697        H  0.08468244  0.70457334  0.41180854     0.11700
H698        H  0.03307958  0.60675801  0.40627027     0.13700
C699        C  0.54279349  0.88471055  0.42083261     0.19800
C700        C  0.54752287  0.88874681  0.43746072    -0.18300
C701        C  0.51458187  0.85907998  0.44745363    -0.10600
C702        C  0.47588782  0.82472883  0.44108967     0.22000
C703        C  0.47075130  0.82170641  0.42453235    -0.19900
C704        C  0.50366590  0.85128840  0.41455770    -0.10800
C705        C  0.44114554  0.79007335  0.45104226    -0.14900
C706        C  0.44013575  0.79094232  0.46700595    -0.28800
C707        C  0.57789315  0.91296614  0.40949924    -0.03100
C708        C  0.61855009  0.94347876  0.41367204    -0.39600
H709        H  0.57664731  0.91410305  0.44296052     0.13200
H710        H  0.52054736  0.86292379  0.46008277     0.12800
H711        H  0.44140947  0.79578911  0.41924256     0.12200
H712        H  0.49885783  0.84736240  0.40182450     0.12500
H713        H  0.41554786  0.76207826  0.44490755     0.15200
H714        H  0.46430228  0.81872498  0.47355622     0.14000
H715        H  0.57005406  0.90746477  0.39692932     0.11700
H716        H  0.62734302  0.95123537  0.42603567     0.13700
C717        C  0.11555697  0.45340754  0.91642745     0.19800
C718        C  0.13748866  0.44164580  0.92737389    -0.18300
C719        C  0.16740755  0.47191589  0.93804177    -0.10600
C720        C  0.17655737  0.51492459  0.93779801     0.22000
C721        C  0.15521653  0.52694113  0.92665004    -0.19900
C722        C  0.12465456  0.49640346  0.91614159    -0.10800
C723        C  0.20959822  0.54816417  0.94852969    -0.14900
C724        C  0.21732523  0.53890457  0.96324282    -0.28800
C725        C  0.08655868  0.42104662  0.90457673    -0.03100
C726        C  0.05176289  0.42041151  0.89797338    -0.39600
H727        H  0.13165827  0.40892333  0.92758927     0.13200
H728        H  0.18424961  0.46184613  0.94613237     0.12800
H729        H  0.16225113  0.56004639  0.92607286     0.12200
H730        H  0.10929623  0.50678144  0.90749358     0.12500
H731        H  0.22678528  0.58147019  0.94444242     0.15200
H732        H  0.19786499  0.50639312  0.96792107     0.14000
H733        H  0.09387913  0.39606813  0.90129838     0.11700
H734        H  0.04174772  0.44273685  0.90208426     0.13700
C735        C  0.32436577  0.88301564  0.92901358     0.19800
C736        C  0.29581409  0.86090190  0.94155073    -0.18300
C737        C  0.30035381  0.83047414  0.95046967    -0.10600
C738        C  0.33304900  0.82086158  0.94674628     0.22000
C739        C  0.36137304  0.84276073  0.93410116    -0.19900
C740        C  0.35746458  0.87397692  0.92542168    -0.10800
C741        C  0.33663745  0.78642429  0.95522884    -0.14900
C742        C  0.32689236  0.77764747  0.97070654    -0.28800
C743        C  0.31617088  0.91191740  0.91886548    -0.03100
C744        C  0.34799411  0.94907421  0.91266169    -0.39600
H745        H  0.26962938  0.86688450  0.94433052     0.13200
H746        H  0.27724668  0.81338827  0.95986613     0.12800
H747        H  0.38642653  0.83549653  0.93088417     0.12200
H748        H  0.37918814  0.88977663  0.91552982     0.12500
H749        H  0.34891743  0.76873005  0.94865949     0.15200
H750        H  0.31763913  0.79730363  0.97762166     0.14000
H751        H  0.28248965  0.90254590  0.91658654     0.11700
H752        H  0.38166330  0.96097882  0.91594016     0.13700
C753        C  0.57238452  0.67855356  0.57381819     0.19800
C754        C  0.55235068  0.70358291  0.57498855    -0.18300
C755        C  0.51991600  0.69807766  0.56428177    -0.10600
C756        C  0.50643501  0.66708828  0.55209067     0.22000
C757        C  0.52614829  0.64171094  0.55096830    -0.19900
C758        C  0.55894266  0.64745501  0.56164589    -0.10800
C759        C  0.47028225  0.65891574  0.54104171    -0.14900
C760        C  0.46019418  0.68937747  0.53730779    -0.28800
C761        C  0.60508653  0.68447585  0.58612539    -0.03100
C762        C  0.63568657  0.67312548  0.58435161    -0.39600
H763        H  0.56156947  0.72733818  0.58436280     0.13200
H764        H  0.50461574  0.71728291  0.56594070     0.12800
H765        H  0.51593590  0.61715747  0.54185116     0.12200
H766        H  0.57260259  0.62663064  0.56058119     0.12500
H767        H  0.45182172  0.62707631  0.53569045     0.15200
H768        H  0.48020159  0.72204934  0.54175684     0.14000
H769        H  0.60356168  0.69916266  0.59717763     0.11700
H770        H  0.63695450  0.65813399  0.57334484     0.13700
C771        C  0.48677984  0.65657406  0.94049498     0.19800
C772        C  0.47955563  0.62269918  0.93024024    -0.18300
C773        C  0.51340342  0.62542792  0.92089425    -0.10600
C774        C  0.55496286  0.66261677  0.92140217     0.22000
C775        C  0.56179258  0.69686375  0.93138518    -0.19900
C776        C  0.52825867  0.69376698  0.94095013    -0.10800
C777        C  0.59081686  0.66841846  0.91076244    -0.14900
C778        C  0.59544425  0.63581441  0.90501517    -0.28800
C779        C  0.45037460  0.65318623  0.95021399    -0.03100
C780        C  0.45629032  0.66857367  0.96514282    -0.39600
H781        H  0.44768948  0.59397806  0.92952543     0.13200
H782        H  0.50661525  0.59900964  0.91296118     0.12800
H783        H  0.59322606  0.72622220  0.93175289     0.12200
H784        H  0.53452174  0.72090269  0.94841270     0.12500
H785        H  0.61505615  0.70140879  0.90767202     0.15200
H786        H  0.57382473  0.60301206  0.90901135     0.14000
H787        H  0.41769588  0.63557866  0.94531962     0.11700
H788        H  0.48825845  0.68258500  0.97057708     0.13700
C789        C  0.33860586  0.83789271  0.55577468     0.19800
C790        C  0.36634845  0.88292456  0.55548942    -0.18300
C791        C  0.36104417  0.90938244  0.56643153    -0.10600
C792        C  0.32807957  0.89100106  0.57800151     0.22000
C793        C  0.30117979  0.84597204  0.57846924    -0.19900
C794        C  0.30649941  0.81968875  0.56760501    -0.10800
C795        C  0.31894112  0.91693303  0.58943718    -0.14900
C796        C  0.34712963  0.95817073  0.59349209    -0.28800
C797        C  0.34438692  0.81042276  0.54394432    -0.03100
C798        C  0.31143334  0.77159747  0.53934888    -0.39600
H799        H  0.39161394  0.89770241  0.54658420     0.13200
H800        H  0.38205854  0.94398806  0.56549681     0.12800
H801        H  0.27583443  0.83094215  0.58733914     0.12200
H802        H  0.28563773  0.78507557  0.56866324     0.12500
H803        H  0.28696546  0.90074539  0.59489459     0.15200
H804        H  0.37907110  0.97526366  0.58809416     0.14000
H805        H  0.37639019  0.82274874  0.53873181     0.11700
H806        H  0.27879907  0.76017978  0.54374796     0.13700
C807        C  0.15716149  0.49775370  0.55531830     0.19800
C808        C  0.13085184  0.50363295  0.56622803    -0.18300
C809        C  0.10386885  0.47051055  0.57668958    -0.10600
C810        C  0.10211240  0.43039266  0.57625852     0.22000
C811        C  0.12822603  0.42446407  0.56527086    -0.19900
C812        C  0.15518914  0.45755743  0.55482596    -0.10800
C813        C  0.07543913  0.39490040  0.58759206    -0.14900
C814        C  0.04015945  0.39070423  0.59514469    -0.28800
C815        C  0.18594377  0.53398486  0.54457817    -0.03100
C816        C  0.22324097  0.53893456  0.53863963    -0.39600
H817        H  0.13183185  0.53429269  0.56687378     0.13200
H818        H  0.08533205  0.47691264  0.58530196     0.12800
H819        H  0.12762103  0.39397368  0.56471518     0.12200
H820        H  0.17400203  0.45128585  0.54629206     0.12500
H821        H  0.08491031  0.37081385  0.58947293     0.15200
H822        H  0.02837249  0.41245025  0.59218052     0.14000
H823        H  0.17726244  0.55846538  0.54214395     0.11700
H824        H  0.23364989  0.51617268  0.54177065     0.13700
C825        C  0.76629041  0.69461231  0.83222341     0.19800
C826        C  0.75931649  0.68483062  0.81594121    -0.18300
C827        C  0.79376064  0.70442390  0.80507174    -0.10600
C828        C  0.83595052  0.73473778  0.81029499     0.22000
C829        C  0.84271372  0.74461061  0.82655190    -0.19900
C830        C  0.80847710  0.72483667  0.83738868    -0.10800
C831        C  0.87348194  0.75853631  0.79931640    -0.14900
C832        C  0.87604893  0.74557878  0.78452826    -0.28800
C833        C  0.72851317  0.67639623  0.84328210    -0.03100
C834        C  0.73226458  0.67382481  0.85914419    -0.39600
H835        H  0.72696990  0.66237982  0.81158938     0.13200
H836        H  0.78680789  0.69669079  0.79261306     0.12800
H837        H  0.87467644  0.76822494  0.83089585     0.12200
H838        H  0.81498462  0.73461296  0.84970609     0.12500
H839        H  0.90111025  0.78808903  0.80381172     0.15200
H840        H  0.84894131  0.71660170  0.77953945     0.14000
H841        H  0.69671346  0.66654082  0.83827498     0.11700
H842        H  0.76270058  0.67931048  0.86417874     0.13700
C843        C  0.15907979  0.89792714  0.81705189     0.19800
C844        C  0.19536642  0.89335530  0.81985865    -0.18300
C845        C  0.22037752  0.91019098  0.83362541    -0.10600
C846        C  0.20954282  0.93209203  0.84497719     0.22000
C847        C  0.17338723  0.93686494  0.84210029    -0.19900
C848        C  0.14853897  0.92022008  0.82831534    -0.10800
C849        C  0.23631344  0.95299460  0.85938027    -0.14900
C850        C  0.27079015  0.94972776  0.86393254    -0.28800
C851        C  0.13458405  0.88118007  0.80190516    -0.03100
C852        C  0.09435486  0.87470495  0.79959616    -0.39600
H853        H  0.20467496  0.87699107  0.81127830     0.13200
H854        H  0.24848801  0.90655539  0.83500696     0.12800
H855        H  0.16473750  0.95431576  0.85043059     0.12200
H856        H  0.12195905  0.92609902  0.82641774     0.12500
H857        H  0.22811851  0.97341390  0.86634319     0.15200
H858        H  0.27786334  0.92689148  0.85824545     0.14000
H859        H  0.15003889  0.87359264  0.79231815     0.11700
H860        H  0.07662171  0.87780242  0.80947279     0.13700
C861        C  0.24291326  0.94713325  0.67102144     0.19800
C862        C  0.24640308  0.97173716  0.68451893    -0.18300
C863        C  0.21625503  0.95397866  0.69689391    -0.10600
C864        C  0.18190711  0.91097683  0.69603899     0.22000
C865        C  0.17940890  0.88584309  0.68285975    -0.19900
C866        C  0.20943557  0.90362243  0.67045695    -0.10800
C867        C  0.14756954  0.89117976  0.70838075    -0.14900
C868        C  0.13586090  0.91378370  0.71788889    -0.28800
C869        C  0.27418733  0.96868744  0.65777526    -0.03100
C870        C  0.26758747  0.95394879  0.64270488    -0.39600
H871        H  0.27210023  0.00520184  0.68535519     0.13200
H872        H  0.22005607  0.97403372  0.70705528     0.12800
H873        H  0.15351660  0.85247162  0.68199305     0.12200
H874        H  0.20609369  0.88303649  0.66054513     0.12500
H875        H  0.12802470  0.85610215  0.70865128     0.15200
H876        H  0.15374851  0.94881089  0.71790662     0.14000
H877        H  0.30272637  0.99984914  0.66030749     0.11700
H878        H  0.24032103  0.92247994  0.63972285     0.13700
C879        C  0.86051374  0.75715366  0.68350864     0.19800
C880        C  0.81964278  0.71994372  0.68160231    -0.18300
C881        C  0.79770232  0.71102658  0.66706605    -0.10600
C882        C  0.81655764  0.73902077  0.65402916     0.22000
C883        C  0.85767276  0.77594055  0.65589110    -0.19900
C884        C  0.87965319  0.78479047  0.67040654    -0.10800
C885        C  0.79250359  0.73309949  0.63893847    -0.14900
C886        C  0.75843221  0.69513668  0.63431157    -0.28800
C887        C  0.88304445  0.76528324  0.69907093    -0.03100
C888        C  0.91267503  0.80502088  0.70412757    -0.39600
H889        H  0.80426875  0.69811915  0.69149270     0.13200
H890        H  0.76542613  0.68302719  0.66630055     0.12800
H891        H  0.87279368  0.79812951  0.64607775     0.12200
H892        H  0.91177635  0.81300779  0.67122047     0.12500
H893        H  0.80136992  0.76172289  0.63184606     0.15200
H894        H  0.75135731  0.66543083  0.64026367     0.14000
H895        H  0.87524859  0.73765513  0.70659792     0.11700
H896        H  0.92081603  0.83309667  0.69685356     0.13700
C897        C  0.07476184  0.29816846  0.83433675     0.19800
C898        C  0.07399276  0.25886779  0.83585444    -0.18300
C899        C  0.09488542  0.24668990  0.82477604    -0.10600
C900        C  0.11632898  0.27329730  0.81164324     0.22000
C901        C  0.11866286  0.31350700  0.81048457    -0.19900
C902        C  0.09797603  0.32585713  0.82167354    -0.10800
C903        C  0.13533158  0.25986521  0.79869126    -0.14900
C904        C  0.12581039  0.21886922  0.79639036    -0.28800
C905        C  0.04869828  0.30750513  0.84564239    -0.03100
C906        C  0.05568272  0.34726562  0.84876748    -0.39600
H907        H  0.05671090  0.23719617  0.84560035     0.13200
H908        H  0.09362318  0.21626085  0.82659526     0.12800
H909        H  0.13530872  0.33483128  0.80058616     0.12200
H910        H  0.09885018  0.35619625  0.81998819     0.12500
H911        H  0.15646387  0.28425189  0.79016747     0.15200
H912        H  0.10495173  0.19313931  0.80443971     0.14000
H913        H  0.02309868  0.28029702  0.85210703     0.11700
H914        H  0.08365400  0.37558046  0.84381717     0.13700
C915        C  0.25735668  0.09007644  0.81621869     0.19800
C916        C  0.24030844  0.08115789  0.83167495    -0.18300
C917        C  0.25864226  0.06789958  0.84349252    -0.10600
C918        C  0.29461974  0.06309374  0.84012070     0.22000
C919        C  0.31166797  0.07180156  0.82465850    -0.19900
C920        C  0.29346238  0.08536045  0.81282431    -0.10800
C921        C  0.31188779  0.04471368  0.85196301    -0.14900
C922        C  0.30683665  0.04610522  0.86777030    -0.28800
C923        C  0.23551996  0.10299068  0.80409362    -0.03100
C924        C  0.25367934  0.12291918  0.79028785    -0.39600
H925        H  0.21229965  0.08407275  0.83460613     0.13200
H926        H  0.24348206  0.05995337  0.85507560     0.12800
H927        H  0.33880776  0.06749570  0.82166795     0.12200
H928        H  0.30709467  0.09083757  0.80101717     0.12500
H929        H  0.32745783  0.02742859  0.84748431     0.15200
H930        H  0.29518789  0.06642788  0.87264868     0.14000
H931        H  0.20331502  0.09733005  0.80695787     0.11700
H932        H  0.28548003  0.12863085  0.78688656     0.13700
C933        C  0.29907066  0.09915458  0.65679948     0.19800
C934        C  0.32429965  0.12048313  0.67015618    -0.18300
C935        C  0.30703908  0.13343719  0.68243349    -0.10600
C936        C  0.26401159  0.12527313  0.68151786     0.22000
C937        C  0.23967671  0.10581786  0.66775808    -0.19900
C938        C  0.25693585  0.09285969  0.65552122    -0.10800
C939        C  0.24297098  0.13618932  0.69449302    -0.14900
C940        C  0.25921091  0.14739801  0.70926928    -0.28800
C941        C  0.31682068  0.08244450  0.64465321    -0.03100
C942        C  0.29134513  0.04493145  0.63714119    -0.39600
H943        H  0.35705903  0.12611960  0.67128239     0.13200
H944        H  0.32768694  0.14966922  0.69250649     0.12800
H945        H  0.20683373  0.09991311  0.66657423     0.12200
H946        H  0.23717017  0.07771981  0.64511202     0.12500
H947        H  0.21155391  0.13305621  0.69198999     0.15200
H948        H  0.28880371  0.14779271  0.71255302     0.14000
H949        H  0.35186667  0.09843444  0.64315582     0.11700
H950        H  0.25687236  0.02641199  0.63985765     0.13700
C951        C  0.06861643  0.28986698  0.66677364     0.19800
C952        C  0.08054888  0.30667948  0.68216933    -0.18300
C953        C  0.09783644  0.28955093  0.69292526    -0.10600
C954        C  0.10314457  0.25449467  0.68859434     0.22000
C955        C  0.09131520  0.23780898  0.67311499    -0.19900
C956        C  0.07419435  0.25515108  0.66232386    -0.10800
C957        C  0.11985743  0.23368894  0.69976059    -0.14900
C958        C  0.13228160  0.24635233  0.71489868    -0.28800
C959        C  0.04732331  0.30714381  0.65626224    -0.03100
C960        C  0.04443959  0.30262055  0.64035213    -0.39600
H961        H  0.07615771  0.33310543  0.68595895     0.13200
H962        H  0.10627152  0.30388311  0.70459125     0.12800
H963        H  0.09473019  0.21074195  0.66940502     0.12200
H964        H  0.06419374  0.24039800  0.65072426     0.12500
H965        H  0.12133876  0.20594431  0.69538230     0.15200
H966        H  0.12979143  0.27276321  0.71992717     0.14000
H967        H  0.03271270  0.32398635  0.66193248     0.11700
H968        H  0.06226831  0.28987052  0.63417473     0.13700
C969        C  0.91447057  0.23349227  0.83191740     0.19800
C970        C  0.87827290  0.19170957  0.83339071    -0.18300
C971        C  0.86482597  0.16228148  0.82072632    -0.10600
C972        C  0.88745575  0.17393976  0.80615282     0.22000
C973        C  0.92328933  0.21586750  0.80464586    -0.19900
C974        C  0.93678521  0.24516367  0.81728860    -0.10800
C975        C  0.87694063  0.14331191  0.79253796    -0.14900
C976        C  0.84278392  0.10267888  0.79203696    -0.28800
C977        C  0.92978101  0.26245989  0.84618561    -0.03100
C978        C  0.96054995  0.30457896  0.84560437    -0.39600
H979        H  0.86068386  0.18146553  0.84451379     0.13200
H980        H  0.83735696  0.13037295  0.82269437     0.12800
H981        H  0.94170796  0.22582313  0.79369041     0.12200
H982        H  0.96563112  0.27623958  0.81552414     0.12500
H983        H  0.89962238  0.15413025  0.78264918     0.15200
H984        H  0.82012907  0.08995065  0.80184324     0.14000
H985        H  0.91713402  0.24801028  0.85773276     0.11700
H986        H  0.97403209  0.32000082  0.83432537     0.13700
C987        C  0.72734223  0.78517347  0.84268623     0.19800
C988        C  0.77067249  0.81152359  0.83783477    -0.18300
C989        C  0.78127418  0.84195519  0.82573235    -0.10600
C990        C  0.74866284  0.84692033  0.81834931     0.22000
C991        C  0.70556407  0.82153662  0.82346709    -0.19900
C992        C  0.69485460  0.79078169  0.83545046    -0.10800
C993        C  0.75883624  0.87920093  0.80563748    -0.14900
C994        C  0.78977128  0.88861838  0.79470899    -0.28800
C995        C  0.71771596  0.75254020  0.85530418    -0.03100
C996        C  0.67826932  0.71748324  0.85766134    -0.39600
H997        H  0.79638912  0.80823326  0.84331709     0.13200
H998        H  0.81499898  0.86195202  0.82231745     0.12800
H999        H  0.68002817  0.82526318  0.81806336     0.12200
H1000       H  0.66126332  0.77214719  0.83909882     0.12500
H1001       H  0.73873522  0.89396712  0.80464678     0.15200
H1002       H  0.80747801  0.87128780  0.79453859     0.14000
H1003       H  0.74483626  0.75619013  0.86243570     0.11700
H1004       H  0.65018797  0.71285763  0.85100242     0.13700
C1005       C  0.93058560  0.21236749  0.66521959     0.19800
C1006       C  0.91259358  0.16748750  0.66447302    -0.18300
C1007       C  0.89706762  0.14228476  0.67818956    -0.10600
C1008       C  0.89978834  0.16163491  0.69301913     0.22000
C1009       C  0.91869447  0.20665357  0.69382697    -0.19900
C1010       C  0.93368550  0.23183272  0.68005076    -0.10800
C1011       C  0.88592876  0.13574487  0.70786364    -0.14900
C1012       C  0.85252635  0.09483574  0.70816931    -0.28800
C1013       C  0.94907480  0.23832313  0.65060359    -0.03100
C1014       C  0.95184872  0.27671144  0.64822819    -0.39600
H1015       H  0.91082381  0.15191483  0.65324792     0.13200
H1016       H  0.88426421  0.10784435  0.67721153     0.12800
H1017       H  0.92200864  0.22235246  0.70515325     0.12200
H1018       H  0.94892090  0.26656691  0.68111687     0.12500
H1019       H  0.90438729  0.15026223  0.71864274     0.15200
H1020       H  0.83405257  0.08062859  0.69736983     0.14000
H1021       H  0.96137625  0.22570147  0.64152890     0.11700
H1022       H  0.93607242  0.28797209  0.65636589     0.13700
C1023       C  0.75393868  0.84173355  0.68574979     0.19800
C1024       C  0.74221075  0.84904910  0.67060932    -0.18300
C1025       C  0.73040754  0.81846727  0.65844628    -0.10600
C1026       C  0.72977980  0.77943851  0.66116226     0.22000
C1027       C  0.74104122  0.77186158  0.67634592    -0.19900
C1028       C  0.75315342  0.80258027  0.68848646    -0.10800
C1029       C  0.71693225  0.74548095  0.64870757    -0.14900
C1030       C  0.71886085  0.75288715  0.63290959    -0.28800
C1031       C  0.76523033  0.87524031  0.69829983    -0.03100
C1032       C  0.78535637  0.87731572  0.71215143    -0.39600
H1033       H  0.74205633  0.87864617  0.66816804     0.13200
H1034       H  0.72097630  0.82529908  0.64709293     0.12800
H1035       H  0.74044111  0.74193157  0.67885156     0.12200
H1036       H  0.76093042  0.79490242  0.69999682     0.12500
H1037       H  0.70772010  0.71317296  0.65273600     0.15200
H1038       H  0.72696267  0.78446449  0.62846684     0.14000
H1039       H  0.75706020  0.90010826  0.69589819     0.11700
H1040       H  0.79363169  0.85290935  0.71509852     0.13700
C1041       C  0.90684160  0.34965252  0.57533863     0.19800
C1042       C  0.89738094  0.32982968  0.56032913    -0.18300
C1043       C  0.86563680  0.32992459  0.55051673    -0.10600
C1044       C  0.84261236  0.35032151  0.55542204     0.22000
C1045       C  0.85244490  0.37061650  0.57035639    -0.19900
C1046       C  0.88425127  0.37056415  0.58016813    -0.10800
C1047       C  0.80680905  0.34940287  0.54579345    -0.14900
C1048       C  0.79979393  0.33884224  0.53024779    -0.28800
C1049       C  0.93987588  0.34699594  0.58550992    -0.03100
C1050       C  0.94452749  0.35493910  0.60126024    -0.39600
H1051       H  0.91407803  0.31337416  0.55626993     0.13200
H1052       H  0.85869165  0.31295448  0.53932883     0.12800
H1053       H  0.83532761  0.38657787  0.57449173     0.12200
H1054       H  0.89092733  0.38712492  0.59143920     0.12500
H1055       H  0.78512614  0.35775150  0.55185037     0.15200
H1056       H  0.82181694  0.33201945  0.52370470     0.14000
H1057       H  0.95913343  0.33476888  0.58001170     0.11700
H1058       H  0.92306613  0.36327169  0.60741321     0.13700
C1059       C  0.66683250  0.14349491  0.45357979     0.19800
C1060       C  0.69671410  0.12904764  0.45454372    -0.18300
C1061       C  0.69169546  0.09466211  0.44515847    -0.10600
C1062       C  0.65721398  0.07470328  0.43418164     0.22000
C1063       C  0.62668905  0.08850003  0.43350617    -0.19900
C1064       C  0.63144311  0.12260881  0.44305224    -0.10800
C1065       C  0.65320817  0.04110235  0.42275513    -0.14900
C1066       C  0.68736788  0.03719310  0.41831945    -0.28800
C1067       C  0.67475978  0.18166010  0.46313094    -0.03100
C1068       C  0.64261529  0.18763124  0.46848473    -0.39600
H1069       H  0.72408758  0.14444104  0.46262246     0.13200
H1070       H  0.71510755  0.08414807  0.44653742     0.12800
H1071       H  0.59981354  0.07375758  0.42519446     0.12200
H1072       H  0.60824331  0.13346703  0.44175655     0.12500
H1073       H  0.62251403  0.02233129  0.41651599     0.15200
H1074       H  0.71926027  0.05898240  0.42322692     0.14000
H1075       H  0.70821927  0.20505351  0.46618733     0.11700
H1076       H  0.60896119  0.16333154  0.46621583     0.13700
C1077       C  0.49311698  0.17190899  0.55257964     0.19800
C1078       C  0.46008526  0.12951397  0.54925095    -0.18300
C1079       C  0.43172421  0.10329888  0.56119762    -0.10600
C1080       C  0.43570887  0.11920044  0.57679701     0.22000
C1081       C  0.46792672  0.16209488  0.57993476    -0.19900
C1082       C  0.49615612  0.18822059  0.56800784    -0.10800
C1083       C  0.40747635  0.09295616  0.59022535    -0.14900
C1084       C  0.37666306  0.05086209  0.58934724    -0.28800
C1085       C  0.52326879  0.19837793  0.53966496    -0.03100
C1086       C  0.56335350  0.23214070  0.54242292    -0.39600
H1087       H  0.45658297  0.11639589  0.53739635     0.13200
H1088       H  0.40710364  0.07085233  0.55801397     0.12800
H1089       H  0.47140239  0.17555865  0.59172646     0.12200
H1090       H  0.51990253  0.22126219  0.57094554     0.12500
H1091       H  0.41342719  0.10905925  0.60165198     0.15200
H1092       H  0.37123113  0.03325850  0.57835350     0.14000
H1093       H  0.51256622  0.18891049  0.52748053     0.11700
H1094       H  0.57535574  0.24098833  0.55447919     0.13700
C1095       C  0.81872937  0.48357408  0.43812733     0.19800
C1096       C  0.84744632  0.52753829  0.44101486    -0.18300
C1097       C  0.87771226  0.55332762  0.42951400    -0.10600
C1098       C  0.87909402  0.53566156  0.41476304     0.22000
C1099       C  0.84975169  0.49183515  0.41177129    -0.19900
C1100       C  0.82010661  0.46581729  0.42341462    -0.10800
C1101       C  0.90817220  0.56310504  0.40187306    -0.14900
C1102       C  0.94752814  0.59785736  0.40463942    -0.28800
C1103       C  0.78661927  0.45731157  0.45042742    -0.03100
C1104       C  0.77595886  0.41638826  0.45350246    -0.39600
H1105       H  0.84649447  0.54190096  0.45221486     0.13200
H1106       H  0.89896976  0.58733215  0.43198956     0.12800
H1107       H  0.84970502  0.47777977  0.40038016     0.12200
H1108       H  0.79754787  0.43217145  0.42076323     0.12500
H1109       H  0.89674629  0.55438581  0.38972249     0.15200
H1110       H  0.96070053  0.60424570  0.41661622     0.14000
H1111       H  0.77361055  0.47295244  0.45783508     0.11700
H1112       H  0.79177197  0.40181881  0.44708219     0.13700
C1113       C  0.50395725  0.34071563  0.44590828     0.19800
C1114       C  0.49738730  0.37529083  0.44233083    -0.18300
C1115       C  0.46291176  0.36921015  0.43248043    -0.10600
C1116       C  0.43458215  0.32831528  0.42584060     0.22000
C1117       C  0.44164901  0.29404248  0.42930118    -0.19900
C1118       C  0.47595466  0.30011945  0.43907513    -0.10800
C1119       C  0.39714748  0.31912627  0.41533835    -0.14900
C1120       C  0.39060334  0.34914509  0.40824825    -0.28800
C1121       C  0.54088170  0.34790962  0.45633975    -0.03100
C1122       C  0.54026067  0.31587692  0.46492578    -0.39600
H1123       H  0.51868531  0.40697847  0.44732931     0.13200
H1124       H  0.45849984  0.39646792  0.43032307     0.12800
H1125       H  0.42072441  0.26231173  0.42425941     0.12200
H1126       H  0.48079086  0.27299419  0.44097176     0.12500
H1127       H  0.37388770  0.28527230  0.41309794     0.15200
H1128       H  0.41251401  0.38313340  0.41052527     0.14000
H1129       H  0.56894998  0.38030416  0.45706959     0.11700
H1130       H  0.51137345  0.28402824  0.46492776     0.13700
C1131       C  0.69402059  0.57562926  0.56753071     0.19800
C1132       C  0.71922399  0.58137081  0.55395042    -0.18300
C1133       C  0.71271026  0.54581155  0.54487620    -0.10600
C1134       C  0.68135220  0.50358469  0.54942852     0.22000
C1135       C  0.65602572  0.49792835  0.56296544    -0.19900
C1136       C  0.66193306  0.53353184  0.57184124    -0.10800
C1137       C  0.67662520  0.46475532  0.54113721    -0.14900
C1138       C  0.68509984  0.46396481  0.52559326    -0.28800
C1139       C  0.70468988  0.61336820  0.57785985    -0.03100
C1140       C  0.67476554  0.61722033  0.58631793    -0.39600
H1141       H  0.74452862  0.61344468  0.55050750     0.13200
H1142       H  0.73352971  0.55137652  0.53473886     0.12800
H1143       H  0.63200330  0.46574624  0.56682945     0.12200
H1144       H  0.64270584  0.52791637  0.58246126     0.12500
H1145       H  0.66459632  0.43529534  0.54805622     0.15200
H1146       H  0.69388735  0.49203849  0.51821335     0.14000
H1147       H  0.73845258  0.63913942  0.57847093     0.11700
H1148       H  0.64045673  0.59378757  0.58482298     0.13700
C1149       C  0.50128290  0.16631064  0.95364728     0.19800
C1150       C  0.47466149  0.12170735  0.95620707    -0.18300
C1151       C  0.44635373  0.09473939  0.94430022    -0.10600
C1152       C  0.44381546  0.11205647  0.92956125     0.22000
C1153       C  0.47000142  0.15676048  0.92716294    -0.19900
C1154       C  0.49807154  0.18357415  0.93902356    -0.10800
C1155       C  0.41490079  0.08562203  0.91624179    -0.14900
C1156       C  0.38390321  0.04348499  0.91708735    -0.28800
C1157       C  0.53167534  0.19414239  0.96641115    -0.03100
C1158       C  0.56832268  0.23155190  0.96316754    -0.39600
H1159       H  0.47622990  0.10757335  0.96738596     0.13200
H1160       H  0.42712496  0.06055885  0.94673557     0.12800
H1161       H  0.46854346  0.17121988  0.91604236     0.12200
H1162       H  0.51664076  0.21790918  0.93670822     0.12500
H1163       H  0.41965861  0.10228276  0.90500228     0.15200
H1164       H  0.37944234  0.02557486  0.92795902     0.14000
H1165       H  0.52465261  0.18283483  0.97861541     0.11700
H1166       H  0.57688292  0.24156006  0.95090807     0.13700
C1167       C  0.44600412  0.31626450  0.07837613     0.19800
C1168       C  0.48932209  0.32976452  0.08235491    -0.18300
C1169       C  0.51790696  0.32949062  0.07102395    -0.10600
C1170       C  0.50354663  0.31493860  0.05547090     0.22000
C1171       C  0.46010498  0.30089998  0.05152180    -0.19900
C1172       C  0.43167129  0.30190162  0.06278995    -0.10800
C1173       C  0.53266732  0.31218817  0.04343784    -0.14900
C1174       C  0.57535448  0.34154503  0.04255231    -0.28800
C1175       C  0.41616253  0.31472668  0.09106977    -0.03100
C1176       C  0.38016015  0.31726625  0.08839527    -0.39600
H1177       H  0.50104571  0.34034499  0.09432780     0.13200
H1178       H  0.55087088  0.33948665  0.07458247     0.12800
H1179       H  0.44813366  0.28907122  0.03967524     0.12200
H1180       H  0.39824038  0.29013194  0.05939646     0.12500
H1181       H  0.51824576  0.28653025  0.03464674     0.15200
H1182       H  0.58909587  0.36930944  0.05044477     0.14000
H1183       H  0.42502854  0.31270503  0.10326764     0.11700
H1184       H  0.37284981  0.32315860  0.07645461     0.13700
C1185       C  0.89351102  0.34710821  0.91605923     0.19800
C1186       C  0.87449855  0.31669927  0.92830858    -0.18300
C1187       C  0.84867213  0.32105495  0.93981015    -0.10600
C1188       C  0.84056016  0.35558060  0.93910891     0.22000
C1189       C  0.85924423  0.38581910  0.92675051    -0.19900
C1190       C  0.88586296  0.38193759  0.91541838    -0.10800
C1191       C  0.80994547  0.35861722  0.95030503    -0.14900
C1192       C  0.80389110  0.34374702  0.96532868    -0.28800
C1193       C  0.91913683  0.34035109  0.90366040    -0.03100
C1194       C  0.95481117  0.37308596  0.89692921    -0.39600
H1195       H  0.87951444  0.28934072  0.92893570     0.13200
H1196       H  0.83379417  0.29642769  0.94887350     0.12800
H1197       H  0.85294692  0.41231255  0.92580093     0.12200
H1198       H  0.89927256  0.40535585  0.90589006     0.12500
H1199       H  0.79180138  0.37352130  0.94601263     0.15200
H1200       H  0.82411382  0.33172531  0.97011040     0.14000
H1201       H  0.90979532  0.30730945  0.90063123     0.11700
H1202       H  0.96636891  0.40583252  0.90099572     0.13700
C1203       C  0.64880241  0.09163192  0.07553960     0.19800
C1204       C  0.68072331  0.11065018  0.06371948    -0.18300
C1205       C  0.67854101  0.13779405  0.05226960    -0.10600
C1206       C  0.64456663  0.14709579  0.05254917     0.22000
C1207       C  0.61177037  0.12677536  0.06399484    -0.19900
C1208       C  0.61391749  0.09957717  0.07543954    -0.10800
C1209       C  0.64295711  0.17871905  0.04148235    -0.14900
C1210       C  0.67887978  0.21170335  0.03498071    -0.28800
C1211       C  0.65469472  0.06641586  0.08835570    -0.03100
C1212       C  0.62212240  0.03726789  0.09751534    -0.39600
H1213       H  0.70777462  0.10487066  0.06345006     0.13200
H1214       H  0.70365304  0.15151235  0.04330672     0.12800
H1215       H  0.58517728  0.13321998  0.06444944     0.12200
H1216       H  0.58909338  0.08635034  0.08450932     0.12500
H1217       H  0.61184284  0.17682372  0.03964233     0.15200
H1218       H  0.71048359  0.21543736  0.03747423     0.14000
H1219       H  0.68725093  0.07179125  0.09025178     0.11700
H1220       H  0.58895966  0.02902135  0.09505558     0.13700
C1221       C  0.90946226  0.57517193  0.07530755     0.19800
C1222       C  0.88799477  0.53069361  0.07840633    -0.18300
C1223       C  0.85994970  0.50116199  0.06714495    -0.10600
C1224       C  0.85249606  0.51577338  0.05262889     0.22000
C1225       C  0.87407138  0.56022155  0.04949986    -0.19900
C1226       C  0.90250117  0.58972910  0.06068009    -0.10800
C1227       C  0.81953930  0.48579060  0.04119385    -0.14900
C1228       C  0.80995605  0.44473511  0.03928739    -0.28800
C1229       C  0.93608424  0.60551819  0.08802491    -0.03100
C1230       C  0.96877891  0.64576992  0.08515812    -0.39600
H1231       H  0.89240960  0.51881491  0.08968327     0.13200
H1232       H  0.84283134  0.46713928  0.07010264     0.12800
H1233       H  0.86830363  0.57216152  0.03847921     0.12200
H1234       H  0.91748218  0.62384442  0.05807347     0.12500
H1235       H  0.80289205  0.49815412  0.03396786     0.15200
H1236       H  0.82864552  0.43286511  0.04546798     0.14000
H1237       H  0.92903496  0.59406135  0.10022063     0.11700
H1238       H  0.97897745  0.65651610  0.07305609     0.13700
C1239       C  0.67019232  0.49150156  0.94637018     0.19800
C1240       C  0.63595421  0.48233577  0.93586357    -0.18300
C1241       C  0.63831972  0.51420532  0.92557290    -0.10600
C1242       C  0.67554419  0.55570059  0.92537613     0.22000
C1243       C  0.70994308  0.56456673  0.93577560    -0.19900
C1244       C  0.70718404  0.53300208  0.94627572    -0.10800
C1245       C  0.68127259  0.58928657  0.91364958    -0.14900
C1246       C  0.64822813  0.59180801  0.90690729    -0.28800
C1247       C  0.66827942  0.45642617  0.95634033    -0.03100
C1248       C  0.68478628  0.46294941  0.97115310    -0.39600
H1249       H  0.60745016  0.45031509  0.93554233     0.13200
H1250       H  0.61172651  0.50574968  0.91740871     0.12800
H1251       H  0.73929611  0.59597073  0.93566320     0.12200
H1252       H  0.73462703  0.54061499  0.95390795     0.12500
H1253       H  0.71444078  0.61359175  0.91066403     0.15200
H1254       H  0.61522531  0.57010337  0.91083151     0.14000
H1255       H  0.65207238  0.42398999  0.95139040     0.11700
H1256       H  0.69781777  0.49442249  0.97671958     0.13700
loop_ 
_geom_bond_atom_site_label_1 
_geom_bond_atom_site_label_2 
_geom_bond_distance 
_geom_bond_site_symmetry_2 
_ccdc_geom_bond_type 
Zn1           O5   1.962       .  S
Zn1           O6   2.002       .  S
Zn1          O10   2.011       .  S
Zn1          O17   2.023   1_554  S
Zn2           O5   1.984       .  S
Zn2           O7   2.051       .  S
Zn2           O9   2.049       .  S
Zn2          O13   2.057   1_554  S
Zn3           O5   1.961       .  S
Zn3           O8   2.014       .  S
Zn3          O11   2.022       .  S
Zn3          O14   2.037   1_554  S
Zn4           O5   1.952   1_556  S
Zn4          O12   2.008       .  S
Zn4          O15   1.997       .  S
Zn4          O16   2.025       .  S
O6           C18   1.272       .  A
O7           C19   1.278       .  A
O8           C20   1.274       .  A
O9           C18   1.278       .  A
O10          C20   1.271       .  A
O11          C19   1.274       .  A
O12          C21   1.272       .  A
O13          C22   1.278       .  A
O14          C21   1.274       .  A
O15          C22   1.271       .  A
O16          C23   1.274       .  A
O17          C23   1.273       .  A
C18        C1210   1.478       .  S
C19        C1174   1.481       .  S
C20        C1228   1.472       .  S
C21        C1248   1.479       .  S
C22        C1158   1.478       .  S
C23        C1192   1.479       .  S
Zn24         O28   1.960       .  S
Zn24         O29   2.009       .  S
Zn24         O33   2.015       .  S
Zn24         O40   2.020       .  S
Zn25         O28   1.971       .  S
Zn25         O30   2.027       .  S
Zn25         O32   2.038       .  S
Zn25         O36   2.015       .  S
Zn26         O28   1.965       .  S
Zn26         O31   2.019       .  S
Zn26         O34   2.031       .  S
Zn26         O37   2.038       .  S
Zn27         O28   1.966       .  S
Zn27         O35   2.032       .  S
Zn27         O38   2.013       .  S
Zn27         O39   2.028       .  S
O29          C41   1.272       .  A
O30          C42   1.274       .  A
O31          C43   1.273       .  A
O32          C41   1.275       .  A
O33          C43   1.274       .  A
O34          C42   1.276       .  A
O35          C44   1.275       .  A
O36          C45   1.275       .  A
O37          C44   1.276       .  A
O38          C45   1.272       .  A
O39          C46   1.275       .  A
O40          C46   1.272       .  A
C41        C1122   1.477       .  S
C42        C1138   1.481       .  S
C43        C1086   1.475       .  S
C44        C1048   1.485       .  S
C45        C1104   1.472       .  S
C46        C1068   1.479       .  S
N47          C52   1.357       .  A
N47          C51   1.353   1_565  A
N47          H79   1.040       .  S
N48          C55   1.352       .  A
N48          C56   1.354       .  A
N49          C54   1.354       .  A
N49          C53   1.355   1_565  A
N49          H80   1.039       .  S
N50          C57   1.353       .  A
N50          C58   1.351       .  A
C51          C59   1.388       .  A
C51          C67   1.416       .  A
C52          C68   1.417       .  A
C52          C60   1.386       .  A
C53          C61   1.387       .  A
C53          C70   1.415       .  A
C54          C69   1.416       .  A
C54          C62   1.387       .  A
C55          C67   1.416       .  A
C55          C63   1.387       .  A
C56          C70   1.417       .  A
C56          C64   1.385       .  A
C57          C65   1.386       .  A
C57          C68   1.413       .  A
C58          C66   1.386       .  A
C58          C69   1.412       .  A
C59          C60   1.373   1_545  A
C59          H71   1.082       .  S
C60          H72   1.082       .  S
C61          C62   1.374   1_545  A
C61          H73   1.083       .  S
C62          H74   1.082       .  S
C63          C64   1.376       .  A
C63          H75   1.082       .  S
C64          H76   1.082       .  S
C65          C66   1.373       .  A
C65          H77   1.082       .  S
C66          H78   1.082       .  S
C67        C1012   1.490       .  S
C68        C1032   1.499       .  S
C69         C994   1.485       .  S
C70         C976   1.495       .  S
N81          C86   1.352       .  A
N81          C85   1.355       .  A
N81         H113   1.045       .  S
N82          C89   1.353       .  A
N82          C90   1.351       .  A
N83          C88   1.355       .  A
N83          C87   1.351       .  A
N83         H114   1.044       .  S
N84          C91   1.350       .  A
N84          C92   1.353       .  A
C85          C93   1.386       .  A
C85         C101   1.416       .  A
C86         C102   1.417       .  A
C86          C94   1.388       .  A
C87          C95   1.386       .  A
C87         C104   1.410       .  A
C88         C103   1.417       .  A
C88          C96   1.388       .  A
C89         C101   1.413       .  A
C89          C97   1.387       .  A
C90         C104   1.412       .  A
C90          C98   1.386       .  A
C91          C99   1.388       .  A
C91         C102   1.412       .  A
C92         C100   1.385       .  A
C92         C103   1.411       .  A
C93          C94   1.374       .  A
C93         H105   1.082       .  S
C94         H106   1.082       .  S
C95          C96   1.374       .  A
C95         H107   1.082       .  S
C96         H108   1.082       .  S
C97          C98   1.372       .  A
C97         H109   1.082       .  S
C98         H110   1.082       .  S
C99         C100   1.372       .  A
C99         H111   1.082       .  S
C100        H112   1.082       .  S
C101        C958   1.496       .  S
C102        C940   1.488       .  S
C103        C924   1.496       .  S
C104        C904   1.481       .  S
N115        C120   1.353   1_455  A
N115        C119   1.355       .  A
N115        H147   1.036       .  S
N116        C123   1.352       .  A
N116        C124   1.352       .  A
N117        C122   1.355       .  A
N117        C121   1.353   1_655  A
N117        H148   1.040       .  S
N118        C125   1.353       .  A
N118        C126   1.353       .  A
C119        C127   1.389       .  A
C119        C135   1.420       .  A
C120        C136   1.416       .  A
C120        C128   1.387   1_655  A
C121        C129   1.386       .  A
C121        C138   1.414       .  A
C122        C137   1.420       .  A
C122        C130   1.388       .  A
C123        C135   1.412       .  A
C123        C131   1.385       .  A
C124        C138   1.417       .  A
C124        C132   1.388       .  A
C125        C133   1.386       .  A
C125        C136   1.416       .  A
C126        C134   1.386       .  A
C126        C137   1.415       .  A
C127        C128   1.371       .  A
C127        H139   1.081       .  S
C128        H140   1.082   1_455  S
C129        C130   1.375   1_455  A
C129        H141   1.083       .  S
C130        H142   1.082       .  S
C131        C132   1.374       .  A
C131        H143   1.082       .  S
C132        H144   1.081       .  S
C133        C134   1.373       .  A
C133        H145   1.082       .  S
C134        H146   1.082       .  S
C135        C868   1.489       .  S
C136        C888   1.487       .  S
C137        C832   1.498       .  S
C138        C852   1.490       .  S
C149       C1050   1.490       .  S
C149        C150   1.419   1_655  A
C149        C154   1.403       .  A
C150        C814   1.494       .  S
C150        C151   1.413       .  A
C151        C152   1.403       .  A
C151        H156   1.082       .  S
C152        C960   1.490       .  S
C152        C153   1.417   1_455  A
C153       C1014   1.483       .  S
C153        C154   1.400       .  A
C154        H155   1.085       .  S
C157       C1084   1.491       .  S
C157        C158   1.417   1_545  A
C157        C162   1.408       .  A
C158        C796   1.491       .  S
C158        C159   1.410       .  A
C159        C160   1.399       .  A
C159        H164   1.083       .  S
C160        C870   1.489       .  S
C160        C161   1.412   1_565  A
C161        C942   1.478       .  S
C161        C162   1.402       .  A
C162        H163   1.083       .  S
C165        C778   1.493       .  S
C165        C166   1.419       .  A
C165        C170   1.407       .  A
C166       C1246   1.495       .  S
C166        C167   1.413       .  A
C167        C168   1.405       .  A
C167        H172   1.084       .  S
C168        C834   1.491       .  S
C168        C169   1.417       .  A
C169        C996   1.483       .  S
C169        C170   1.400       .  A
C170        H171   1.084       .  S
C173        C762   1.500       .  S
C173        C174   1.417       .  A
C173        C178   1.414       .  A
C174       C1140   1.489       .  S
C174        C175   1.407       .  A
C175        C176   1.403       .  A
C175        H180   1.085       .  S
C176        C886   1.486       .  S
C176        C177   1.420       .  A
C177       C1030   1.495       .  S
C177        C178   1.405       .  A
C178        H179   1.082       .  S
C181       C1156   1.497       .  S
C181        C182   1.416   1_545  A
C181        C186   1.413       .  A
C182        C744   1.486       .  S
C182        C183   1.405       .  A
C183        C184   1.400       .  A
C183        H188   1.085       .  S
C184        C850   1.486       .  S
C184        C185   1.418   1_565  A
C185        C922   1.487       .  S
C185        C186   1.404       .  A
C186        H187   1.083       .  S
C189        C726   1.490       .  S
C189        C190   1.418   1_455  A
C189        C194   1.404       .  A
C190       C1194   1.490       .  S
C190        C191   1.415       .  A
C191        C192   1.408       .  A
C191        H196   1.084       .  S
C192        C978   1.487       .  S
C192        C193   1.413   1_655  A
C193        C906   1.484       .  S
C193        C194   1.395       .  A
C194        H195   1.084       .  S
Zn197       O201   1.978       .  S
Zn197       O202   2.040       .  S
Zn197       O206   2.046       .  S
Zn197       O213   2.043       .  S
Zn198       O201   1.960       .  S
Zn198       O203   2.018       .  S
Zn198       O205   2.003       .  S
Zn198       O209   2.016       .  S
Zn199       O201   1.963       .  S
Zn199       O204   2.020       .  S
Zn199       O207   2.019       .  S
Zn199       O210   2.029       .  S
Zn200       O201   1.963       .  S
Zn200       O208   2.014       .  S
Zn200       O211   2.039       .  S
Zn200       O212   2.008       .  S
O202        C214   1.277       .  A
O203        C215   1.273       .  A
O204        C216   1.273       .  A
O205        C214   1.272       .  A
O206        C216   1.277       .  A
O207        C215   1.273       .  A
O208        C217   1.272       .  A
O209        C218   1.272       .  A
O210        C217   1.275       .  A
O211        C218   1.275       .  A
O212        C219   1.272       .  A
O213        C219   1.277       .  A
C214        C706   1.477       .  S
C215        C798   1.476       .  S
C216        C688   1.481       .  S
C217        C816   1.477       .  S
C218        C760   1.480       .  S
C219        C670   1.477       .  S
Zn220       O224   1.969   1_556  S
Zn220       O225   2.039       .  S
Zn220       O229   2.036       .  S
Zn220       O236   2.024       .  S
Zn221       O224   1.956       .  S
Zn221       O226   2.006       .  S
Zn221       O228   2.019   1_554  S
Zn221       O232   2.014       .  S
Zn222       O224   1.966       .  S
Zn222       O227   2.013   1_554  S
Zn222       O230   2.034       .  S
Zn222       O233   2.016       .  S
Zn223       O224   1.966       .  S
Zn223       O231   2.029       .  S
Zn223       O234   2.029       .  S
Zn223       O235   2.018   1_554  S
O225        C237   1.276       .  A
O226        C238   1.271       .  A
O227        C239   1.272       .  A
O228        C237   1.273       .  A
O229        C239   1.276       .  A
O230        C238   1.275       .  A
O231        C240   1.274       .  A
O232        C241   1.272       .  A
O233        C240   1.274       .  A
O234        C241   1.275       .  A
O235        C242   1.273       .  A
O236        C242   1.275       .  A
C237        C780   1.478       .  S
C238        C652   1.475       .  S
C239        C742   1.478       .  S
C240        C636   1.479       .  S
C241        C618   1.479       .  S
C242        C724   1.476       .  S
N243        C248   1.355       .  A
N243        C247   1.353   1_655  A
N243        H275   1.035       .  S
N244        C251   1.354       .  A
N244        C252   1.354       .  A
N245        C250   1.354       .  A
N245        C249   1.355   1_655  A
N245        H276   1.040       .  S
N246        C253   1.352       .  A
N246        C254   1.350       .  A
C247        C255   1.389       .  A
C247        C263   1.420       .  A
C248        C264   1.418       .  A
C248        C256   1.386       .  A
C249        C257   1.388       .  A
C249        C266   1.419       .  A
C250        C265   1.415       .  A
C250        C258   1.386       .  A
C251        C263   1.418       .  A
C251        C259   1.387       .  A
C252        C266   1.417       .  A
C252        C260   1.386       .  A
C253        C261   1.387       .  A
C253        C264   1.412       .  A
C254        C262   1.386       .  A
C254        C265   1.410       .  A
C255        C256   1.376   1_455  A
C255        H267   1.081       .  S
C256        H268   1.082       .  S
C257        C258   1.375   1_455  A
C257        H269   1.082       .  S
C258        H270   1.082       .  S
C259        C260   1.373       .  A
C259        H271   1.082       .  S
C260        H272   1.082       .  S
C261        C262   1.370       .  A
C261        H273   1.082       .  S
C262        H274   1.082       .  S
C263        C598   1.490       .  S
C264        C564   1.485       .  S
C265        C544   1.486       .  S
C266        C580   1.497       .  S
N277        C282   1.355       .  A
N277        C281   1.355       .  A
N277        H309   1.041       .  S
N278        C285   1.351       .  A
N278        C286   1.353       .  A
N279        C284   1.353       .  A
N279        C283   1.354       .  A
N279        H310   1.041       .  S
N280        C287   1.351       .  A
N280        C288   1.351       .  A
C281        C289   1.388       .  A
C281        C297   1.418       .  A
C282        C298   1.415       .  A
C282        C290   1.385       .  A
C283        C291   1.387       .  A
C283        C300   1.413       .  A
C284        C299   1.414       .  A
C284        C292   1.387       .  A
C285        C297   1.412       .  A
C285        C293   1.385       .  A
C286        C300   1.416       .  A
C286        C294   1.387       .  A
C287        C295   1.386       .  A
C287        C298   1.410       .  A
C288        C296   1.386       .  A
C288        C299   1.410       .  A
C289        C290   1.373       .  A
C289        H301   1.082       .  S
C290        H302   1.082       .  S
C291        C292   1.372       .  A
C291        H303   1.082       .  S
C292        H304   1.082       .  S
C293        C294   1.376       .  A
C293        H305   1.082       .  S
C294        H306   1.082       .  S
C295        C296   1.373       .  A
C295        H307   1.082       .  S
C296        H308   1.082       .  S
C297        C508   1.491       .  S
C298        C472   1.491       .  S
C299        C490   1.486       .  S
C300        C528   1.494       .  S
C311       C1066   1.486       .  S
C311        C312   1.416   1_545  A
C311        C316   1.400       .  A
C312        C708   1.489       .  S
C312        C313   1.413       .  A
C313        C314   1.406       .  A
C313        H318   1.084       .  S
C314        C510   1.495       .  S
C314        C315   1.420   1_565  A
C315        C546   1.480       .  S
C315        C316   1.398       .  A
C316        H317   1.085       .  S
N319        C324   1.355   1_545  A
N319        C323   1.352       .  A
N319        H351   1.039       .  S
N320        C327   1.350       .  A
N320        C328   1.351       .  A
N321        C326   1.352   1_545  A
N321        C325   1.350       .  A
N321        H352   1.041       .  S
N322        C329   1.349       .  A
N322        C330   1.348       .  A
C323        C331   1.387       .  A
C323        C339   1.416       .  A
C324        C340   1.417       .  A
C324        C332   1.387       .  A
C325        C333   1.385       .  A
C325        C342   1.410       .  A
C326        C341   1.415       .  A
C326        C334   1.389       .  A
C327        C339   1.410       .  A
C327        C335   1.387       .  A
C328        C342   1.408       .  A
C328        C336   1.386       .  A
C329        C337   1.387       .  A
C329        C340   1.408       .  A
C330        C338   1.387       .  A
C330        C341   1.408       .  A
C331        C332   1.374   1_545  A
C331        H343   1.082       .  S
C332        H344   1.081       .  S
C333        C334   1.376   1_545  A
C333        H345   1.082       .  S
C334        H346   1.082       .  S
C335        C336   1.372       .  A
C335        H347   1.082       .  S
C336        H348   1.082       .  S
C337        C338   1.371       .  A
C337        H349   1.082       .  S
C338        H350   1.082       .  S
C339        C436   1.486       .  S
C340        C402   1.484       .  S
C341        C418   1.482       .  S
C342        C456   1.486       .  S
C353       C1212   1.488       .  S
C353        C354   1.414   1_545  A
C353        C358   1.406       .  A
C354        C654   1.489       .  S
C354        C355   1.408       .  A
C355        C356   1.402       .  A
C355        H360   1.084       .  S
C356        C526   1.486       .  S
C356        C357   1.419   1_565  A
C357        C562   1.486       .  S
C357        C358   1.402       .  A
C358        H359   1.084       .  S
C361       C1120   1.494       .  S
C361        C362   1.417       .  A
C361        C366   1.410       .  A
C362        C672   1.485       .  S
C362        C363   1.409       .  A
C363        C364   1.399       .  A
C363        H368   1.084       .  S
C364        C582   1.490       .  S
C364        C365   1.411       .  A
C365        C438   1.477       .  S
C365        C366   1.402       .  A
C366        H367   1.083       .  S
C369       C1176   1.494       .  S
C369        C370   1.415       .  A
C369        C374   1.408       .  A
C370        C616   1.490       .  S
C370        C371   1.411       .  A
C371        C372   1.401       .  A
C371        H376   1.084       .  S
C372        C600   1.492       .  S
C372        C373   1.418       .  A
C373        C454   1.482       .  S
C373        C374   1.404       .  A
C374        H375   1.084       .  S
C377        C690   1.488       .  S
C377        C378   1.412   1_455  A
C377        C382   1.405       .  A
C378       C1102   1.487       .  S
C378        C379   1.409       .  A
C379        C380   1.402       .  A
C379        H384   1.084       .  S
C380        C474   1.490       .  S
C380        C381   1.420   1_655  A
C381        C400   1.485       .  S
C381        C382   1.403       .  A
C382        H383   1.085       .  S
C385       C1230   1.479       .  S
C385        C386   1.414   1_655  A
C385        C390   1.406       .  A
C386        C634   1.484       .  S
C386        C387   1.399       .  A
C387        C388   1.399       .  A
C387        H392   1.085       .  S
C388        C420   1.480       .  S
C388        C389   1.420   1_455  A
C389        C492   1.485       .  S
C389        C390   1.400       .  A
C390        H391   1.085       .  S
C393        C401   1.478       .  S
C393        C394   1.401       .  A
C393        C398   1.406       .  A
C394        C395   1.396       .  A
C394        H403   1.083       .  S
C395        C396   1.406       .  A
C395        H404   1.082       .  S
C396        C399   1.483       .  S
C396        C397   1.404       .  A
C397        C398   1.398       .  A
C397        H405   1.083       .  S
C398        H406   1.083       .  S
C399        H407   1.086       .  S
C399        C400   1.346       .  D
C400        H408   1.085       .  S
C401        H409   1.087       .  S
C401        C402   1.342       .  D
C402        H410   1.086       .  S
C411        C419   1.486       .  S
C411        C412   1.404       .  A
C411        C416   1.411       .  A
C412        C413   1.394       .  A
C412        H421   1.083       .  S
C413        C414   1.405       .  A
C413        H422   1.083       .  S
C414        C417   1.475       .  S
C414        C415   1.398       .  A
C415        C416   1.395       .  A
C415        H423   1.084       .  S
C416        H424   1.078       .  S
C417        H425   1.087       .  S
C417        C418   1.341       .  D
C418        H426   1.086       .  S
C419        H427   1.087       .  S
C419        C420   1.344       .  D
C420        H428   1.081       .  S
C429        C437   1.489       .  S
C429        C430   1.404       .  A
C429        C434   1.411       .  A
C430        C431   1.399       .  A
C430        H439   1.083       .  S
C431        C432   1.407       .  A
C431        H440   1.082       .  S
C432        C435   1.479       .  S
C432        C433   1.399       .  A
C433        C434   1.393       .  A
C433        H441   1.084       .  S
C434        H442   1.079       .  S
C435        H443   1.088       .  S
C435        C436   1.343       .  D
C436        H444   1.085       .  S
C437        H445   1.087       .  S
C437        C438   1.343       .  D
C438        H446   1.081       .  S
C447        C455   1.480       .  S
C447        C448   1.401       .  A
C447        C452   1.407       .  A
C448        C449   1.395       .  A
C448        H457   1.084       .  S
C449        C450   1.407       .  A
C449        H458   1.082       .  S
C450        C453   1.482       .  S
C450        C451   1.402       .  A
C451        C452   1.398       .  A
C451        H459   1.083       .  S
C452        H460   1.082       .  S
C453        H461   1.087       .  S
C453        C454   1.344       .  D
C454        H462   1.085       .  S
C455        H463   1.087       .  S
C455        C456   1.344       .  D
C456        H464   1.085       .  S
C465        C473   1.486       .  S
C465        C466   1.404       .  A
C465        C470   1.406       .  A
C466        C467   1.399       .  A
C466        H475   1.083       .  S
C467        C468   1.406       .  A
C467        H476   1.082       .  S
C468        C471   1.485       .  S
C468        C469   1.404       .  A
C469        C470   1.400       .  A
C469        H477   1.083       .  S
C470        H478   1.082       .  S
C471        H479   1.087       .  S
C471        C472   1.346       .  D
C472        H480   1.086       .  S
C473        H481   1.086       .  S
C473        C474   1.348       .  D
C474        H482   1.085       .  S
C483        C491   1.478       .  S
C483        C484   1.402       .  A
C483        C488   1.405       .  A
C484        C485   1.396       .  A
C484        H493   1.083       .  S
C485        C486   1.406       .  A
C485        H494   1.082       .  S
C486        C489   1.479       .  S
C486        C487   1.403       .  A
C487        C488   1.398       .  A
C487        H495   1.083       .  S
C488        H496   1.083       .  S
C489        H497   1.087       .  S
C489        C490   1.344       .  D
C490        H498   1.086       .  S
C491        H499   1.086       .  S
C491        C492   1.345       .  D
C492        H500   1.086       .  S
C501        C509   1.482       .  S
C501        C502   1.402       .  A
C501        C506   1.406       .  A
C502        C503   1.397       .  A
C502        H511   1.083       .  S
C503        C504   1.406       .  A
C503        H512   1.083       .  S
C504        C507   1.484       .  S
C504        C505   1.405       .  A
C505        C506   1.403       .  A
C505        H513   1.083       .  S
C506        H514   1.083       .  S
C507        H515   1.087       .  S
C507        C508   1.346       .  D
C508        H516   1.087       .  S
C509        H517   1.085       .  S
C509        C510   1.347       .  D
C510        H518   1.087       .  S
C519        C527   1.482       .  S
C519        C520   1.402       .  A
C519        C524   1.406       .  A
C520        C521   1.401       .  A
C520        H529   1.083       .  S
C521        C522   1.408       .  A
C521        H530   1.082       .  S
C522        C525   1.485       .  S
C522        C523   1.403       .  A
C523        C524   1.398       .  A
C523        H531   1.083       .  S
C524        H532   1.083       .  S
C525        H533   1.087       .  S
C525        C526   1.345       .  D
C526        H534   1.086       .  S
C527        H535   1.086       .  S
C527        C528   1.344       .  D
C528        H536   1.087       .  S
C537        C545   1.485       .  S
C537        C538   1.402       .  A
C537        C542   1.407       .  A
C538        C539   1.398       .  A
C538        H547   1.083       .  S
C539        C540   1.409       .  A
C539        H548   1.080       .  S
C540        C543   1.487       .  S
C540        C541   1.402       .  A
C541        C542   1.396       .  A
C541        H549   1.083       .  S
C542        H550   1.081       .  S
C543        H551   1.088       .  S
C543        C544   1.344       .  D
C544        H552   1.083       .  S
C545        H553   1.087       .  S
C545        C546   1.344       .  D
C546        H554   1.085       .  S
C555        C563   1.482       .  S
C555        C556   1.402       .  A
C555        C560   1.407       .  A
C556        C557   1.399       .  A
C556        H565   1.083       .  S
C557        C558   1.407       .  A
C557        H566   1.082       .  S
C558        C561   1.482       .  S
C558        C559   1.402       .  A
C559        C560   1.397       .  A
C559        H567   1.083       .  S
C560        H568   1.082       .  S
C561        H569   1.086       .  S
C561        C562   1.346       .  D
C562        H570   1.085       .  S
C563        H571   1.087       .  S
C563        C564   1.343       .  D
C564        H572   1.086       .  S
C573        C581   1.487       .  S
C573        C574   1.404       .  A
C573        C578   1.406       .  A
C574        C575   1.401       .  A
C574        H583   1.083       .  S
C575        C576   1.409       .  A
C575        H584   1.081       .  S
C576        C579   1.492       .  S
C576        C577   1.405       .  A
C577        C578   1.401       .  A
C577        H585   1.083       .  S
C578        H586   1.082       .  S
C579        H587   1.087       .  S
C579        C580   1.349       .  D
C580        H588   1.084       .  S
C581        H589   1.087       .  S
C581        C582   1.349       .  D
C582        H590   1.085       .  S
C591        C599   1.491       .  S
C591        C592   1.404       .  A
C591        C596   1.409       .  A
C592        C593   1.398       .  A
C592        H601   1.084       .  S
C593        C594   1.407       .  A
C593        H602   1.081       .  S
C594        C597   1.490       .  S
C594        C595   1.405       .  A
C595        C596   1.402       .  A
C595        H603   1.083       .  S
C596        H604   1.081       .  S
C597        H605   1.087       .  S
C597        C598   1.347       .  D
C598        H606   1.085       .  S
C599        H607   1.087       .  S
C599        C600   1.348       .  D
C600        H608   1.084       .  S
C609        C617   1.490       .  S
C609        C610   1.401       .  A
C609        C614   1.411       .  A
C610        C611   1.394       .  A
C610        H619   1.083       .  S
C611        C612   1.403       .  A
C611        H620   1.084       .  S
C612        C615   1.488       .  S
C612        C613   1.409       .  A
C613        C614   1.403       .  A
C613        H621   1.080       .  S
C614        H622   1.080       .  S
C615        H623   1.087       .  S
C615        C616   1.348       .  D
C616        H624   1.083       .  S
C617        H625   1.087       .  S
C617        C618   1.345       .  D
C618        H626   1.083       .  S
C627        C635   1.487       .  S
C627        C628   1.404       .  A
C627        C632   1.408       .  A
C628        C629   1.398       .  A
C628        H637   1.083       .  S
C629        C630   1.407       .  A
C629        H638   1.082       .  S
C630        C633   1.485       .  S
C630        C631   1.403       .  A
C631        C632   1.399       .  A
C631        H639   1.083       .  S
C632        H640   1.081       .  S
C633        H641   1.087       .  S
C633        C634   1.346       .  D
C634        H642   1.085       .  S
C635        H643   1.087       .  S
C635        C636   1.347       .  D
C636        H644   1.084       .  S
C645        C653   1.487       .  S
C645        C646   1.403       .  A
C645        C650   1.409       .  A
C646        C647   1.397       .  A
C646        H655   1.084       .  S
C647        C648   1.407       .  A
C647        H656   1.082       .  S
C648        C651   1.486       .  S
C648        C649   1.402       .  A
C649        C650   1.400       .  A
C649        H657   1.083       .  S
C650        H658   1.081       .  S
C651        H659   1.087       .  S
C651        C652   1.344       .  D
C652        H660   1.086       .  S
C653        H661   1.087       .  S
C653        C654   1.346       .  D
C654        H662   1.082       .  S
C663        C671   1.481       .  S
C663        C664   1.402       .  A
C663        C668   1.406       .  A
C664        C665   1.398       .  A
C664        H673   1.083       .  S
C665        C666   1.407       .  A
C665        H674   1.083       .  S
C666        C669   1.486       .  S
C666        C667   1.403       .  A
C667        C668   1.401       .  A
C667        H675   1.083       .  S
C668        H676   1.083       .  S
C669        H677   1.087       .  S
C669        C670   1.344       .  D
C670        H678   1.087       .  S
C671        H679   1.087       .  S
C671        C672   1.345       .  D
C672        H680   1.085       .  S
C681        C689   1.485       .  S
C681        C682   1.402       .  A
C681        C686   1.406       .  A
C682        C683   1.400       .  A
C682        H691   1.083       .  S
C683        C684   1.408       .  A
C683        H692   1.082       .  S
C684        C687   1.490       .  S
C684        C685   1.405       .  A
C685        C686   1.402       .  A
C685        H693   1.083       .  S
C686        H694   1.083       .  S
C687        H695   1.087       .  S
C687        C688   1.346       .  D
C688        H696   1.086       .  S
C689        H697   1.087       .  S
C689        C690   1.345       .  D
C690        H698   1.086       .  S
C699        C707   1.492       .  S
C699        C700   1.409       .  A
C699        C704   1.404       .  A
C700        C701   1.400       .  A
C700        H709   1.079       .  S
C701        C702   1.411       .  A
C701        H710   1.079       .  S
C702        C705   1.493       .  S
C702        C703   1.403       .  A
C703        C704   1.397       .  A
C703        H711   1.083       .  S
C704        H712   1.083       .  S
C705        H713   1.087       .  S
C705        C706   1.345       .  D
C706        H714   1.082       .  S
C707        H715   1.087       .  S
C707        C708   1.349       .  D
C708        H716   1.082       .  S
C717        C725   1.483       .  S
C717        C718   1.403       .  A
C717        C722   1.406       .  A
C718        C719   1.397       .  A
C718        H727   1.083       .  S
C719        C720   1.406       .  A
C719        H728   1.082       .  S
C720        C723   1.485       .  S
C720        C721   1.404       .  A
C721        C722   1.401       .  A
C721        H729   1.083       .  S
C722        H730   1.082       .  S
C723        H731   1.087       .  S
C723        C724   1.346       .  D
C724        H732   1.086       .  S
C725        H733   1.087       .  S
C725        C726   1.348       .  D
C726        H734   1.085       .  S
C735        C743   1.480       .  S
C735        C736   1.402       .  A
C735        C740   1.405       .  A
C736        C737   1.399       .  A
C736        H745   1.083       .  S
C737        C738   1.407       .  A
C737        H746   1.082       .  S
C738        C741   1.486       .  S
C738        C739   1.404       .  A
C739        C740   1.401       .  A
C739        H747   1.083       .  S
C740        H748   1.083       .  S
C741        H749   1.087       .  S
C741        C742   1.345       .  D
C742        H750   1.086       .  S
C743        H751   1.087       .  S
C743        C744   1.345       .  D
C744        H752   1.086       .  S
C753        C761   1.491       .  S
C753        C754   1.404       .  A
C753        C758   1.409       .  A
C754        C755   1.398       .  A
C754        H763   1.084       .  S
C755        C756   1.407       .  A
C755        H764   1.082       .  S
C756        C759   1.492       .  S
C756        C757   1.405       .  A
C757        C758   1.404       .  A
C757        H765   1.083       .  S
C758        H766   1.081       .  S
C759        H767   1.087       .  S
C759        C760   1.347       .  D
C760        H768   1.085       .  S
C761        H769   1.084       .  S
C761        C762   1.351       .  D
C762        H770   1.084       .  S
C771        C779   1.487       .  S
C771        C772   1.404       .  A
C771        C776   1.405       .  A
C772        C773   1.403       .  A
C772        H781   1.083       .  S
C773        C774   1.407       .  A
C773        H782   1.082       .  S
C774        C777   1.488       .  S
C774        C775   1.404       .  A
C775        C776   1.399       .  A
C775        H783   1.083       .  S
C776        H784   1.083       .  S
C777        H785   1.087       .  S
C777        C778   1.350       .  D
C778        H786   1.084       .  S
C779        H787   1.087       .  S
C779        C780   1.346       .  D
C780        H788   1.086       .  S
C789        C797   1.487       .  S
C789        C790   1.405       .  A
C789        C794   1.406       .  A
C790        C791   1.402       .  A
C790        H799   1.083       .  S
C791        C792   1.409       .  A
C791        H800   1.081       .  S
C792        C795   1.485       .  S
C792        C793   1.402       .  A
C793        C794   1.394       .  A
C793        H801   1.084       .  S
C794        H802   1.082       .  S
C795        H803   1.086       .  S
C795        C796   1.346       .  D
C796        H804   1.084       .  S
C797        H805   1.087       .  S
C797        C798   1.348       .  D
C798        H806   1.085       .  S
C807        C815   1.488       .  S
C807        C808   1.403       .  A
C807        C812   1.408       .  A
C808        C809   1.400       .  A
C808        H817   1.083       .  S
C809        C810   1.408       .  A
C809        H818   1.081       .  S
C810        C813   1.488       .  S
C810        C811   1.403       .  A
C811        C812   1.398       .  A
C811        H819   1.083       .  S
C812        H820   1.082       .  S
C813        H821   1.085       .  S
C813        C814   1.349       .  D
C814        H822   1.084       .  S
C815        H823   1.087       .  S
C815        C816   1.346       .  D
C816        H824   1.085       .  S
C825        C833   1.490       .  S
C825        C826   1.406       .  A
C825        C830   1.406       .  A
C826        C827   1.404       .  A
C826        H835   1.083       .  S
C827        C828   1.409       .  A
C827        H836   1.081       .  S
C828        C831   1.491       .  S
C828        C829   1.404       .  A
C829        C830   1.398       .  A
C829        H837   1.083       .  S
C830        H838   1.082       .  S
C831        H839   1.087       .  S
C831        C832   1.348       .  D
C832        H840   1.084       .  S
C833        H841   1.087       .  S
C833        C834   1.350       .  D
C834        H842   1.085       .  S
C843        C851   1.489       .  S
C843        C844   1.402       .  A
C843        C848   1.409       .  A
C844        C845   1.399       .  A
C844        H853   1.083       .  S
C845        C846   1.410       .  A
C845        H854   1.079       .  S
C846        C849   1.489       .  S
C846        C847   1.403       .  A
C847        C848   1.397       .  A
C847        H855   1.084       .  S
C848        H856   1.081       .  S
C849        H857   1.087       .  S
C849        C850   1.347       .  D
C850        H858   1.083       .  S
C851        H859   1.087       .  S
C851        C852   1.345       .  D
C852        H860   1.084       .  S
C861        C869   1.489       .  S
C861        C862   1.405       .  A
C861        C866   1.407       .  A
C862        C863   1.399       .  A
C862        H871   1.084   1_565  S
C863        C864   1.406       .  A
C863        H872   1.081       .  S
C864        C867   1.486       .  S
C864        C865   1.404       .  A
C865        C866   1.399       .  A
C865        H873   1.084       .  S
C866        H874   1.080       .  S
C867        H875   1.088       .  S
C867        C868   1.347       .  D
C868        H876   1.084       .  S
C869        H877   1.087       .  S
C869        C870   1.349       .  D
C870        H878   1.083       .  S
C879        C887   1.486       .  S
C879        C880   1.402       .  A
C879        C884   1.408       .  A
C880        C881   1.399       .  A
C880        H889   1.083       .  S
C881        C882   1.408       .  A
C881        H890   1.081       .  S
C882        C885   1.486       .  S
C882        C883   1.402       .  A
C883        C884   1.398       .  A
C883        H891   1.083       .  S
C884        H892   1.082       .  S
C885        H893   1.087       .  S
C885        C886   1.345       .  D
C886        H894   1.085       .  S
C887        H895   1.087       .  S
C887        C888   1.344       .  D
C888        H896   1.085       .  S
C897        C905   1.482       .  S
C897        C898   1.401       .  A
C897        C902   1.407       .  A
C898        C899   1.395       .  A
C898        H907   1.084       .  S
C899        C900   1.408       .  A
C899        H908   1.080       .  S
C900        C903   1.487       .  S
C900        C901   1.405       .  A
C901        C902   1.400       .  A
C901        H909   1.083       .  S
C902        H910   1.082       .  S
C903        H911   1.088       .  S
C903        C904   1.345       .  D
C904        H912   1.082       .  S
C905        H913   1.088       .  S
C905        C906   1.344       .  D
C906        H914   1.085       .  S
C915        C923   1.491       .  S
C915        C916   1.404       .  A
C915        C920   1.409       .  A
C916        C917   1.397       .  A
C916        H925   1.083       .  S
C917        C918   1.406       .  A
C917        H926   1.082       .  S
C918        C921   1.488       .  S
C918        C919   1.404       .  A
C919        C920   1.402       .  A
C919        H927   1.083       .  S
C920        H928   1.081       .  S
C921        H929   1.087       .  S
C921        C922   1.348       .  D
C922        H930   1.085       .  S
C923        H931   1.087       .  S
C923        C924   1.347       .  D
C924        H932   1.084       .  S
C933        C941   1.480       .  S
C933        C934   1.401       .  A
C933        C938   1.405       .  A
C934        C935   1.398       .  A
C934        H943   1.083       .  S
C935        C936   1.410       .  A
C935        H944   1.080       .  S
C936        C939   1.486       .  S
C936        C937   1.403       .  A
C937        C938   1.395       .  A
C937        H945   1.083       .  S
C938        H946   1.082       .  S
C939        H947   1.087       .  S
C939        C940   1.345       .  D
C940        H948   1.083       .  S
C941        H949   1.087       .  S
C941        C942   1.342       .  D
C942        H950   1.086       .  S
C951        C959   1.488       .  S
C951        C952   1.402       .  A
C951        C956   1.407       .  A
C952        C953   1.398       .  A
C952        H961   1.084       .  S
C953        C954   1.410       .  A
C953        H962   1.078       .  S
C954        C957   1.497       .  S
C954        C955   1.407       .  A
C955        C956   1.401       .  A
C955        H963   1.083       .  S
C956        H964   1.082       .  S
C957        H965   1.087       .  S
C957        C958   1.350       .  D
C958        H966   1.081       .  S
C959        H967   1.087       .  S
C959        C960   1.347       .  D
C960        H968   1.085       .  S
C969        C977   1.499       .  S
C969        C970   1.405       .  A
C969        C974   1.411       .  A
C970        C971   1.403       .  A
C970        H979   1.083       .  S
C971        C972   1.412       .  A
C971        H980   1.079       .  S
C972        C975   1.498       .  S
C972        C973   1.403       .  A
C973        C974   1.399       .  A
C973        H981   1.083       .  S
C974        H982   1.079       .  S
C975        H983   1.087       .  S
C975        C976   1.348       .  D
C976        H984   1.082       .  S
C977        H985   1.087       .  S
C977        C978   1.347       .  D
C978        H986   1.082       .  S
C987        C995   1.486       .  S
C987        C988   1.405       .  A
C987        C992   1.408       .  A
C988        C989   1.398       .  A
C988        H997   1.084       .  S
C989        C990   1.405       .  A
C989        H998   1.083       .  S
C990        C993   1.481       .  S
C990        C991   1.401       .  A
C991        C992   1.398       .  A
C991        H999   1.083       .  S
C992       H1000   1.080       .  S
C993       H1001   1.087       .  S
C993        C994   1.343       .  D
C994       H1002   1.086       .  S
C995       H1003   1.087       .  S
C995        C996   1.346       .  D
C996       H1004   1.083       .  S
C1005      C1013   1.482       .  S
C1005      C1006   1.401       .  A
C1005      C1010   1.408       .  A
C1006      C1007   1.397       .  A
C1006      H1015   1.083       .  S
C1007      C1008   1.408       .  A
C1007      H1016   1.082       .  S
C1008      C1011   1.485       .  S
C1008      C1009   1.402       .  A
C1009      C1010   1.400       .  A
C1009      H1017   1.083       .  S
C1010      H1018   1.082       .  S
C1011      H1019   1.086       .  S
C1011      C1012   1.344       .  D
C1012      H1020   1.086       .  S
C1013      H1021   1.087       .  S
C1013      C1014   1.344       .  D
C1014      H1022   1.086       .  S
C1023      C1031   1.495       .  S
C1023      C1024   1.406       .  A
C1023      C1028   1.409       .  A
C1024      C1025   1.401       .  A
C1024      H1033   1.083       .  S
C1025      C1026   1.407       .  A
C1025      H1034   1.081       .  S
C1026      C1029   1.493       .  S
C1026      C1027   1.406       .  A
C1027      C1028   1.402       .  A
C1027      H1035   1.083       .  S
C1028      H1036   1.080       .  S
C1029      H1037   1.087       .  S
C1029      C1030   1.351       .  D
C1030      H1038   1.084       .  S
C1031      H1039   1.087       .  S
C1031      C1032   1.350       .  D
C1032      H1040   1.083       .  S
C1041      C1049   1.496       .  S
C1041      C1042   1.405       .  A
C1041      C1046   1.409       .  A
C1042      C1043   1.401       .  A
C1042      H1051   1.083       .  S
C1043      C1044   1.409       .  A
C1043      H1052   1.080       .  S
C1044      C1047   1.497       .  S
C1044      C1045   1.406       .  A
C1045      C1046   1.402       .  A
C1045      H1053   1.083       .  S
C1046      H1054   1.080       .  S
C1047      H1055   1.087       .  S
C1047      C1048   1.350       .  D
C1048      H1056   1.084       .  S
C1049      H1057   1.087       .  S
C1049      C1050   1.349       .  D
C1050      H1058   1.084       .  S
C1059      C1067   1.486       .  S
C1059      C1060   1.402       .  A
C1059      C1064   1.407       .  A
C1060      C1061   1.398       .  A
C1060      H1069   1.083       .  S
C1061      C1062   1.409       .  A
C1061      H1070   1.081       .  S
C1062      C1065   1.492       .  S
C1062      C1063   1.405       .  A
C1063      C1064   1.401       .  A
C1063      H1071   1.083       .  S
C1064      H1072   1.082       .  S
C1065      H1073   1.087       .  S
C1065      C1066   1.347       .  D
C1066      H1074   1.084       .  S
C1067      H1075   1.087       .  S
C1067      C1068   1.345       .  D
C1068      H1076   1.086       .  S
C1077      C1085   1.487       .  S
C1077      C1078   1.403       .  A
C1077      C1082   1.406       .  A
C1078      C1079   1.400       .  A
C1078      H1087   1.083       .  S
C1079      C1080   1.410       .  A
C1079      H1088   1.079       .  S
C1080      C1083   1.491       .  S
C1080      C1081   1.404       .  A
C1081      C1082   1.396       .  A
C1081      H1089   1.083       .  S
C1082      H1090   1.081       .  S
C1083      H1091   1.086       .  S
C1083      C1084   1.348       .  D
C1084      H1092   1.081       .  S
C1085      H1093   1.087       .  S
C1085      C1086   1.347       .  D
C1086      H1094   1.084       .  S
C1095      C1103   1.478       .  S
C1095      C1096   1.401       .  A
C1095      C1100   1.405       .  A
C1096      C1097   1.397       .  A
C1096      H1105   1.083       .  S
C1097      C1098   1.407       .  A
C1097      H1106   1.082       .  S
C1098      C1101   1.481       .  S
C1098      C1099   1.403       .  A
C1099      C1100   1.398       .  A
C1099      H1107   1.083       .  S
C1100      H1108   1.083       .  S
C1101      H1109   1.087       .  S
C1101      C1102   1.345       .  D
C1102      H1110   1.086       .  S
C1103      H1111   1.087       .  S
C1103      C1104   1.342       .  D
C1104      H1112   1.087       .  S
C1113      C1121   1.491       .  S
C1113      C1114   1.405       .  A
C1113      C1118   1.407       .  A
C1114      C1115   1.404       .  A
C1114      H1123   1.083       .  S
C1115      C1116   1.410       .  A
C1115      H1124   1.080       .  S
C1116      C1119   1.491       .  S
C1116      C1117   1.403       .  A
C1117      C1118   1.395       .  A
C1117      H1125   1.084       .  S
C1118      H1126   1.081       .  S
C1119      H1127   1.087       .  S
C1119      C1120   1.349       .  D
C1120      H1128   1.082       .  S
C1121      H1129   1.087       .  S
C1121      C1122   1.347       .  D
C1122      H1130   1.085       .  S
C1131      C1139   1.488       .  S
C1131      C1132   1.404       .  A
C1131      C1136   1.406       .  A
C1132      C1133   1.402       .  A
C1132      H1141   1.083       .  S
C1133      C1134   1.407       .  A
C1133      H1142   1.082       .  S
C1134      C1137   1.489       .  S
C1134      C1135   1.405       .  A
C1135      C1136   1.401       .  A
C1135      H1143   1.083       .  S
C1136      H1144   1.083       .  S
C1137      H1145   1.087       .  S
C1137      C1138   1.347       .  D
C1138      H1146   1.086       .  S
C1139      H1147   1.087       .  S
C1139      C1140   1.347       .  D
C1140      H1148   1.086       .  S
C1149      C1157   1.494       .  S
C1149      C1150   1.405       .  A
C1149      C1154   1.408       .  A
C1150      C1151   1.404       .  A
C1150      H1159   1.083       .  S
C1151      C1152   1.410       .  A
C1151      H1160   1.080       .  S
C1152      C1155   1.493       .  S
C1152      C1153   1.404       .  A
C1153      C1154   1.396       .  A
C1153      H1161   1.084       .  S
C1154      H1162   1.081       .  S
C1155      H1163   1.086       .  S
C1155      C1156   1.350       .  D
C1156      H1164   1.083       .  S
C1157      H1165   1.087       .  S
C1157      C1158   1.346       .  D
C1158      H1166   1.085       .  S
C1167      C1175   1.490       .  S
C1167      C1168   1.405       .  A
C1167      C1172   1.408       .  A
C1168      C1169   1.400       .  A
C1168      H1177   1.083       .  S
C1169      C1170   1.406       .  A
C1169      H1178   1.083       .  S
C1170      C1173   1.490       .  S
C1170      C1171   1.404       .  A
C1171      C1172   1.403       .  A
C1171      H1179   1.083       .  S
C1172      H1180   1.082       .  S
C1173      H1181   1.087       .  S
C1173      C1174   1.346       .  D
C1174      H1182   1.086       .  S
C1175      H1183   1.087       .  S
C1175      C1176   1.350       .  D
C1176      H1184   1.085       .  S
C1185      C1193   1.486       .  S
C1185      C1186   1.402       .  A
C1185      C1190   1.407       .  A
C1186      C1187   1.399       .  A
C1186      H1195   1.083       .  S
C1187      C1188   1.407       .  A
C1187      H1196   1.082       .  S
C1188      C1191   1.488       .  S
C1188      C1189   1.405       .  A
C1189      C1190   1.402       .  A
C1189      H1197   1.083       .  S
C1190      H1198   1.083       .  S
C1191      H1199   1.087       .  S
C1191      C1192   1.347       .  D
C1192      H1200   1.086       .  S
C1193      H1201   1.087       .  S
C1193      C1194   1.346       .  D
C1194      H1202   1.085       .  S
C1203      C1211   1.488       .  S
C1203      C1204   1.403       .  A
C1203      C1208   1.408       .  A
C1204      C1205   1.399       .  A
C1204      H1213   1.083       .  S
C1205      C1206   1.409       .  A
C1205      H1214   1.081       .  S
C1206      C1209   1.490       .  S
C1206      C1207   1.403       .  A
C1207      C1208   1.399       .  A
C1207      H1215   1.083       .  S
C1208      H1216   1.081       .  S
C1209      H1217   1.087       .  S
C1209      C1210   1.346       .  D
C1210      H1218   1.085       .  S
C1211      H1219   1.087       .  S
C1211      C1212   1.346       .  D
C1212      H1220   1.083       .  S
C1221      C1229   1.479       .  S
C1221      C1222   1.402       .  A
C1221      C1226   1.407       .  A
C1222      C1223   1.396       .  A
C1222      H1231   1.083       .  S
C1223      C1224   1.406       .  A
C1223      H1232   1.082       .  S
C1224      C1227   1.478       .  S
C1224      C1225   1.401       .  A
C1225      C1226   1.396       .  A
C1225      H1233   1.083       .  S
C1226      H1234   1.082       .  S
C1227      H1235   1.087       .  S
C1227      C1228   1.342       .  D
C1228      H1236   1.086       .  S
C1229      H1237   1.087       .  S
C1229      C1230   1.342       .  D
C1230      H1238   1.085       .  S
C1239      C1247   1.484       .  S
C1239      C1240   1.404       .  A
C1239      C1244   1.404       .  A
C1240      C1241   1.402       .  A
C1240      H1249   1.083       .  S
C1241      C1242   1.408       .  A
C1241      H1250   1.082       .  S
C1242      C1245   1.489       .  S
C1242      C1243   1.405       .  A
C1243      C1244   1.399       .  A
C1243      H1251   1.083       .  S
C1244      H1252   1.083       .  S
C1245      H1253   1.087       .  S
C1245      C1246   1.350       .  D
C1246      H1254   1.084       .  S
C1247      H1255   1.087       .  S
C1247      C1248   1.347       .  D
C1248      H1256   1.086       .  S
