geometry optimzed in LAMMPS
_audit_creation_date              2020-11-30 
_audit_creation_method            'lammps2cif' 
_symmetry_space_group_name_H-M    'P1' 
_symmetry_Int_Tables_number       1 
_symmetry_cell_setting            triclinic 
loop_ 
_symmetry_equiv_pos_as_xyz 
  x,y,z 
_cell_length_a                    33.23187972 
_cell_length_b                    33.10648977272122 
_cell_length_c                    50.561892986540855 
_cell_angle_alpha                 90.1069630015055 
_cell_angle_beta                  90.07302330649048 
_cell_angle_gamma                 90.17260902267925 
loop_ 
_atom_site_label 
_atom_site_type_symbol 
_atom_site_fract_x 
_atom_site_fract_y 
_atom_site_fract_z 
_atom_site_charge 
C1          C  0.33405034  0.97888948  0.25036832     0.03400
C2          C  0.31134863  0.98048594  0.22687842    -0.12800
C3          C  0.26915074  0.98080786  0.22778139     0.00900
C4          C  0.24974984  0.97850685  0.25232358    -0.11300
C5          C  0.27190713  0.97673809  0.27588179     0.03400
C6          C  0.31401707  0.97685678  0.27482859    -0.10700
H7          H  0.32647305  0.98266116  0.20795638     0.09000
H8          H  0.21715066  0.97832001  0.25312616     0.06500
H9          H  0.33110445  0.97450796  0.29302232     0.06300
C10         C  0.63653624  0.97668121  0.25076890     0.03400
C11         C  0.65805460  0.97721238  0.22693274    -0.12800
C12         C  0.70016840  0.97762683  0.22710774     0.00900
C13         C  0.72067019  0.97855159  0.25134626    -0.11300
C14         C  0.69962948  0.97837607  0.27537090     0.03400
C15         C  0.65738001  0.97704241  0.27498162    -0.10700
H16         H  0.64196537  0.97608687  0.20828346     0.09000
H17         H  0.75329251  0.97905823  0.25149779     0.06500
H18         H  0.64072156  0.97734491  0.29338954     0.06300
C19         C  0.98163831  0.33058098  0.25177767     0.03400
C20         C  0.97963307  0.31176147  0.22687170    -0.12800
C21         C  0.97686109  0.26963135  0.22489621     0.00900
C22         C  0.97622439  0.24628634  0.24802421    -0.11300
C23         C  0.97805373  0.26478778  0.27296305     0.03400
C24         C  0.98037114  0.30692265  0.27473426    -0.10700
H25         H  0.97937570  0.32991222  0.20906181     0.09000
H26         H  0.97399713  0.21368009  0.24660566     0.06500
H27         H  0.98212621  0.32122022  0.29400870     0.06300
C28         C  0.99839048  0.63319542  0.25199474     0.03400
C29         C  0.00035998  0.65540263  0.27564303    -0.12800
C30         C  0.00235121  0.69755155  0.27511425     0.00900
C31         C  0.00195366  0.71779776  0.25088793    -0.11300
C32         C  0.99875443  0.69629669  0.22706233     0.03400
C33         C  0.99798214  0.65386715  0.22763825    -0.10700
H34         H  0.99988239  0.63996303  0.29452946     0.09000
H35         H  0.00306342  0.75053225  0.25063509     0.06500
H36         H  0.99626478  0.63711703  0.20924405     0.06300
O37         O  0.09866586  0.99065486  0.04526378    -0.75000
O38         O  0.04818683  0.98598162  0.07545168    -0.54000
C39         C  0.08551437  0.98891334  0.06920373     0.78700
O40         O  0.97427204  0.09541992  0.45573852    -0.59700
O41         O  0.97953200  0.04437179  0.42578389    -0.52700
C42         C  0.97516767  0.08180693  0.43183403     0.70700
O43         O  0.98159354  0.09564383  0.04500980    -0.74200
O44         O  0.98396748  0.04545506  0.07564957    -0.54800
C45         C  0.98262981  0.08291507  0.06907547     0.76700
O46         O  0.09777201  0.98744883  0.45546859    -0.59400
O47         O  0.04660736  0.98456920  0.42560337    -0.52500
C48         C  0.08417257  0.98572467  0.43159672     0.73300
Zr49       Zr  0.06973446  0.98811188  0.00073712     2.54700
O50         O  0.11139487  0.04846150  0.99732722    -0.79900
O51         O  0.12824304  0.94357506  0.50034200    -0.93300
Zr52       Zr  0.97975622  0.06701857  0.00044248     2.64700
O53         O  0.02749345  0.12296438  0.99960728    -0.98300
O54         O  0.92602674  0.11721819  0.50223966    -0.80400
O55         O  0.02572805  0.02871466  0.02616546    -0.83700
O56         O  0.02614013  0.02942714  0.47505891    -2.18400
O57         O  0.99536641  0.87096846  0.45589472    -0.67100
O58         O  0.98867768  0.92143790  0.42577876    -0.51700
C59         C  0.99311656  0.88411292  0.43197530     0.71700
O60         O  0.87399651  0.97827803  0.04732735    -0.60000
O61         O  0.92538085  0.98035900  0.07706530    -0.52000
C62         C  0.88780809  0.97939110  0.07117786     0.73500
O63         O  0.87239254  0.97829733  0.45652318    -0.71400
O64         O  0.92325160  0.97884174  0.42640493    -0.50100
C65         C  0.88580789  0.97786255  0.43258916     0.74900
O66         O  0.99067872  0.86937403  0.04651235    -0.66700
O67         O  0.98924653  0.92086677  0.07642135    -0.53900
C68         C  0.99053956  0.88314595  0.07038792     0.73200
Zr69       Zr  0.99018154  0.89692162  0.00160211     2.77500
O70         O  0.93689503  0.84659295  0.99798302    -0.97500
O71         O  0.04125900  0.84465269  0.00493376    -0.78300
Zr72       Zr  0.90042266  0.97599295  0.00208896     2.70100
O73         O  0.85758929  0.91631800  0.00437876    -0.79500
O74         O  0.84306406  0.02152150  0.00058426    -0.98600
Zr75       Zr  0.98606470  0.98275524  0.05112817     2.21500
Zr76       Zr  0.98518383  0.98302991  0.45105647     2.11100
O77         O  0.94489248  0.93717845  0.47576111    -2.47300
O78         O  0.94521495  0.93608929  0.02746562    -0.79300
O79         O  0.03121165  0.94280764  0.47539790    -0.71500
O80         O  0.93998828  0.02278675  0.02650613    -2.32500
O81         O  0.03128932  0.94201217  0.02631039    -2.28700
O82         O  0.93963233  0.02341807  0.47573425    -0.73300
H83         H  0.04121405  0.04673073  0.46327163     0.78700
H84         H  0.92303741  0.03858746  0.03803624     0.79800
H85         H  0.92959812  0.91969262  0.46414230     0.82000
H86         H  0.04883097  0.92674693  0.03775111     0.79600
H87         H  0.92808147  0.13273798  0.01393804     0.42700
H88         H  0.84952424  0.04345968  0.48753426     0.41600
H89         H  0.86275879  0.90485792  0.02213406     0.41300
H90         H  0.95576386  0.81977011  0.50523148     0.39200
H91         H  0.06478986  0.85895886  0.48852622     0.42400
H92         H  0.15016740  0.95975964  0.99396158     0.37200
H93         H  0.13934942  0.03821797  0.99708859     0.43300
H94         H  0.04048878  0.12345452  0.48197350     0.39700
H95         H  0.91877355  0.85246005  0.01302577     0.44600
H96         H  0.12236604  0.92152176  0.99205234     0.43300
H97         H  0.01351069  0.14477755  0.98992194     0.43500
H98         H  0.84861192  0.04192421  0.01447512     0.43800
C99         C  0.96950945  0.74581448  0.33928609    -0.27400
C100        C  0.00217654  0.77154985  0.34451958     0.02200
C101        C  0.03591402  0.77102041  0.32772961     0.30300
C102        C  0.03621362  0.74564137  0.30558367    -0.19200
C103        C  0.00300042  0.72096812  0.29986022    -0.28600
C104        C  0.96958626  0.72089430  0.31691351     0.44400
C105        C  0.00002407  0.80015976  0.36686731     0.05500
O106        O  0.06885703  0.79475824  0.33314798    -0.57100
H107        H  0.06213225  0.74567602  0.29259688     0.18500
O108        O  0.93635558  0.69772113  0.31130106    -0.63800
H109        H  0.94333161  0.74617460  0.35204133     0.16900
C110        C  0.00009680  0.84200195  0.36233928     0.29200
C111        C  0.99780387  0.86877893  0.38368322    -0.24700
C112        C  0.99569440  0.85452887  0.40987995    -0.24000
C113        C  0.99556717  0.81231558  0.41424875     0.40600
C114        C  0.99728544  0.78560186  0.39278790    -0.26400
O115        O  0.00049814  0.85685089  0.33700081    -0.58300
H116        H  0.99763107  0.90087441  0.37954703     0.16300
O117        O  0.99293645  0.79664661  0.43927665    -0.59800
H118        H  0.99687153  0.75334750  0.39639867     0.14700
H119        H  0.91813516  0.71569399  0.30120053     0.46600
H120        H  0.02659570  0.87117450  0.33513227     0.42000
H121        H  0.02118639  0.79273388  0.44506111     0.45400
H122        H  0.07002925  0.81493221  0.31868768     0.36900
C123        C  0.96397295  0.77358244  0.17698174    -0.27400
C124        C  0.99161320  0.76785748  0.15644622     0.02200
C125        C  0.01990382  0.73640440  0.15821254     0.30300
C126        C  0.02129750  0.71212742  0.18092430    -0.19200
C127        C  0.99451521  0.71885620  0.20193262    -0.28600
C128        C  0.96493438  0.74908061  0.19943210     0.44400
C129        C  0.99200714  0.79657899  0.13411146     0.05500
O130        O  0.04779501  0.73082861  0.13858850    -0.57100
H131        H  0.04421966  0.68906071  0.18255280     0.18500
O132        O  0.93716077  0.75529454  0.21906062    -0.63800
H133        H  0.94183429  0.79747037  0.17568775     0.16900
C134        C  0.97971759  0.78488798  0.10860302     0.29200
C135        C  0.97987864  0.81311850  0.08797240    -0.24700
C136        C  0.99171082  0.85346871  0.09245297    -0.24000
C137        C  0.00405103  0.86489489  0.11819614     0.40600
C138        C  0.00382874  0.83659795  0.13871487    -0.26400
O139        O  0.96701050  0.74612340  0.10370864    -0.58300
H140        H  0.96998051  0.80352810  0.06852169     0.16300
O141        O  0.01652512  0.90357675  0.12360133    -0.59800
H142        H  0.01321742  0.84589038  0.15834765     0.14700
H143        H  0.91514889  0.73579962  0.21532181     0.46600
H144        H  0.93928471  0.74463901  0.11089171     0.42000
H145        H  0.04631580  0.90219140  0.12429696     0.45400
H146        H  0.03593494  0.71004644  0.12675339     0.36900
C147        C  0.00336667  0.18586438  0.32433093    -0.27400
C148        C  0.97233232  0.19149707  0.34277242     0.02200
C149        C  0.94428747  0.22269843  0.33876938     0.30300
C150        C  0.94693483  0.24694397  0.31617629    -0.19200
C151        C  0.97701576  0.24011707  0.29723103    -0.28600
C152        C  0.00560259  0.20958677  0.30154843     0.44400
C153        C  0.96944127  0.16389465  0.36569333     0.05500
O154        O  0.91380297  0.22920472  0.35651535    -0.57100
H155        H  0.92484854  0.27048967  0.31308613     0.18500
O156        O  0.03654399  0.20366230  0.28402993    -0.63800
H157        H  0.02586269  0.16276112  0.32754609     0.16900
C158        C  0.96786012  0.12187845  0.36176504     0.29200
C159        C  0.96877659  0.09580988  0.38344919    -0.24700
C160        C  0.97139895  0.11083551  0.40948665    -0.24000
C161        C  0.97133493  0.15318470  0.41336380     0.40600
C162        C  0.97029229  0.17924905  0.39155357    -0.26400
O163        O  0.96450668  0.10607517  0.33673307    -0.58300
H164        H  0.96783909  0.06359711  0.37968182     0.16300
O165        O  0.97273561  0.16961850  0.43826373    -0.59800
H166        H  0.97138489  0.21158439  0.39483853     0.14700
H167        H  0.02978239  0.17830903  0.27450726     0.46600
H168        H  0.99156385  0.09537571  0.33241923     0.42000
H169        H  0.00177996  0.17287546  0.44229745     0.45400
H170        H  0.89080843  0.21293920  0.34985958     0.36900
C171        C  0.00319112  0.23069493  0.15652216    -0.27400
C172        C  0.97202572  0.20273568  0.15234984     0.02200
C173        C  0.94030958  0.20025212  0.17066966     0.30300
C174        C  0.94158810  0.22327822  0.19383525    -0.19200
C175        C  0.97391154  0.24957089  0.19882238    -0.28600
C176        C  0.00415337  0.25431254  0.17954995     0.44400
C177        C  0.97525969  0.17284436  0.13076459     0.05500
O178        O  0.90872711  0.17422961  0.16653632    -0.57100
H179        H  0.91773517  0.21994178  0.20826999     0.18500
O180        O  0.03633947  0.27944865  0.18401902    -0.63800
H181        H  0.02782360  0.23272568  0.14256243     0.16900
C182        C  0.97321576  0.18421650  0.10407348     0.29200
C183        C  0.97580725  0.15474163  0.08423577    -0.24700
C184        C  0.98149599  0.11368199  0.09059264    -0.24000
C185        C  0.98519766  0.10284837  0.11755750     0.40600
C186        C  0.98148148  0.13224350  0.13726437    -0.26400
O187        O  0.96736928  0.22383165  0.09723105    -0.58300
H188        H  0.97308216  0.16420118  0.06381846     0.16300
O189        O  0.99222209  0.06369698  0.12505554    -0.59800
H190        H  0.98394165  0.12335981  0.15782570     0.14700
H191        H  0.03027157  0.30441302  0.17398161     0.46600
H192        H  0.99457783  0.23447685  0.09313206     0.42000
H193        H  0.02192063  0.06140441  0.12633125     0.45400
H194        H  0.88868601  0.19004089  0.15637472     0.36900
C195        C  0.01615303  0.43831394  0.24071621    -0.27400
C196        C  0.98970635  0.45956468  0.25710520     0.02200
C197        C  0.96167487  0.43847322  0.27265370     0.30300
C198        C  0.95934266  0.39637065  0.27089424    -0.19200
C199        C  0.98510462  0.37497731  0.25388850    -0.28600
C200        C  0.01424755  0.39625629  0.23917649     0.44400
C201        C  0.99083539  0.50390329  0.25694383     0.05500
O202        O  0.93600610  0.45879087  0.28917977    -0.57100
H203        H  0.93698213  0.38044545  0.28249666     0.18500
O204        O  0.04112656  0.37624465  0.22333533    -0.63800
H205        H  0.03811719  0.45448966  0.22893322     0.16900
C206        C  0.01938191  0.52512931  0.27204693     0.29200
C207        C  0.02195092  0.56715665  0.26997631    -0.24700
C208        C  0.99581922  0.58853274  0.25317109    -0.24000
C209        C  0.96643039  0.56705805  0.23866261     0.40600
C210        C  0.96435788  0.52496548  0.24046681    -0.26400
O211        O  0.04521766  0.50498728  0.28855061    -0.58300
H212        H  0.04457356  0.58309799  0.28142086     0.16300
O213        O  0.93922741  0.58691986  0.22299914    -0.59800
H214        H  0.94212007  0.50865189  0.22891090     0.14700
H215        H  0.06230030  0.36626434  0.23549945     0.46600
H216        H  0.02979762  0.50051595  0.30507770     0.42000
H217        H  0.91514241  0.59074976  0.23428099     0.45400
H218        H  0.95204659  0.46473939  0.30528766     0.36900
C219        C  0.84029536  0.96679405  0.36383129    -0.27400
C220        C  0.80023079  0.97763228  0.36843456     0.02200
C221        C  0.78775041  0.98679143  0.39429934     0.30300
C222        C  0.81563807  0.98619019  0.41511262    -0.19200
C223        C  0.85623157  0.97633240  0.41051388    -0.28600
C224        C  0.86811398  0.96563928  0.38454470     0.44400
C225        C  0.77214701  0.97995955  0.34583053     0.05500
O226        O  0.74852244  0.99693732  0.39935147    -0.57100
H227        H  0.80555073  0.99420635  0.43479371     0.18500
O228        O  0.90680900  0.95400939  0.37903097    -0.63800
H229        H  0.85002255  0.95905842  0.34401001     0.16900
C230        C  0.77836590  0.00857231  0.32573119     0.29200
C231        C  0.75345330  0.00868866  0.30344913    -0.24700
C232        C  0.72252198  0.97998609  0.30055248    -0.24000
C233        C  0.71591415  0.95169616  0.32093283     0.40600
C234        C  0.74046156  0.95209060  0.34350602    -0.26400
O235        O  0.80854310  0.03677491  0.32787170    -0.58300
H236        H  0.75876039  0.03090281  0.28812025     0.16300
O237        O  0.68672584  0.92254548  0.31852267    -0.59800
H238        H  0.73571896  0.92968496  0.35879052     0.14700
H239        H  0.90737899  0.92448439  0.38231558     0.46600
H240        H  0.83092201  0.02618325  0.31693685     0.42000
H241        H  0.69968639  0.90011448  0.30871943     0.45400
H242        H  0.74686965  0.02635287  0.39585863     0.36900
C243        C  0.84228562  0.98298870  0.14029007    -0.27400
C244        C  0.80160534  0.97543634  0.13485698     0.02200
C245        C  0.78902343  0.97080362  0.10848261     0.30300
C246        C  0.81725737  0.97253338  0.08799354    -0.19200
C247        C  0.85835352  0.97926477  0.09332309    -0.28600
C248        C  0.87049471  0.98541800  0.11989504     0.44400
C249        C  0.77279369  0.97321883  0.15705066     0.05500
O250        O  0.74925486  0.96427675  0.10254030    -0.57100
H251        H  0.80683933  0.96817007  0.06788135     0.18500
O252        O  0.90972355  0.99397485  0.12633353    -0.63800
H253        H  0.85216033  0.98761644  0.16051115     0.16900
C254        C  0.77858985  0.94528891  0.17762824     0.29200
C255        C  0.75386031  0.94640498  0.19991040    -0.24700
C256        C  0.72329761  0.97533852  0.20219026    -0.24000
C257        C  0.71647989  0.00237415  0.18114720     0.40600
C258        C  0.74109554  0.00103446  0.15869944    -0.26400
O259        O  0.80805122  0.91645148  0.17590738    -0.58300
H260        H  0.75890175  0.92484428  0.21566463     0.16300
O261        O  0.68693554  0.03112380  0.18271063    -0.59800
H262        H  0.73646849  0.02278940  0.14301142     0.14700
H263        H  0.91212045  0.02377111  0.12492658     0.46600
H264        H  0.82978872  0.92575734  0.18793970     0.42000
H265        H  0.69897984  0.05363203  0.19302407     0.45400
H266        H  0.74583000  0.93451447  0.10268050     0.36900
C267        C  0.13038829  0.98335499  0.36258912    -0.27400
C268        C  0.17131972  0.97848865  0.36843265     0.02200
C269        C  0.18374207  0.97721554  0.39500445     0.30300
C270        C  0.15521819  0.97998698  0.41529346    -0.19200
C271        C  0.11392485  0.98436445  0.40957837    -0.28600
C272        C  0.10184101  0.98658865  0.38275245     0.44400
C273        C  0.20050839  0.97511890  0.34645071     0.05500
O274        O  0.22363888  0.97297303  0.40137776    -0.57100
H275        H  0.16557329  0.97827902  0.43558004     0.18500
O276        O  0.06226873  0.99178336  0.37582369    -0.63800
H277        H  0.12051936  0.98511362  0.34218756     0.16900
C278        C  0.19595063  0.94483770  0.32709964     0.29200
C279        C  0.22083649  0.94464128  0.30485178    -0.24700
C280        C  0.25030081  0.97456378  0.30138613    -0.24000
C281        C  0.25615654  0.00384443  0.32130732     0.40600
C282        C  0.23137636  0.00387505  0.34373020    -0.26400
O283        O  0.16732615  0.91519787  0.32989916    -0.58300
H284        H  0.21643763  0.92158903  0.28986960     0.16300
O285        O  0.28470738  0.03353705  0.31849877    -0.59800
H286        H  0.23511686  0.02741180  0.35845664     0.14700
H287        H  0.05825408  0.02145379  0.37537428     0.46600
H288        H  0.14565328  0.92224395  0.31723137     0.42000
H289        H  0.27060705  0.05623481  0.30973138     0.45400
H290        H  0.22945472  0.94381293  0.39908189     0.36900
C291        C  0.19047770  0.01546773  0.17852588    -0.27400
C292        C  0.19609224  0.98802352  0.15773819     0.02200
C293        C  0.22683197  0.95899106  0.15952588     0.30300
C294        C  0.25118560  0.95739251  0.18215066    -0.19200
C295        C  0.24496707  0.98432522  0.20325711    -0.28600
C296        C  0.21470537  0.01392057  0.20108646     0.44400
C297        C  0.16823950  0.98866658  0.13495928     0.05500
O298        O  0.23265736  0.93150500  0.13956491    -0.57100
H299        H  0.27421077  0.93439107  0.18354661     0.18500
O300        O  0.20846629  0.04144369  0.22096463    -0.63800
H301        H  0.16702544  0.03806165  0.17727715     0.16900
C302        C  0.12715628  0.98059599  0.13868112     0.29200
C303        C  0.10093482  0.98102105  0.11713498    -0.24700
C304        C  0.11482649  0.98959664  0.09144120    -0.24000
C305        C  0.15618249  0.99813555  0.08781345     0.40600
C306        C  0.18252412  0.99739479  0.10951048    -0.26400
O307        O  0.11263613  0.97066751  0.16322401    -0.58300
H308        H  0.06951382  0.97427906  0.12071774     0.16300
O309        O  0.17132329  0.00701579  0.06327487    -0.59800
H310        H  0.21415801  0.00392979  0.10651349     0.14700
H311        H  0.22926319  0.06259718  0.21832212     0.46600
H312        H  0.09928226  0.99545417  0.16983729     0.42000
H313        H  0.17168956  0.03693602  0.06233679     0.45400
H314        H  0.21145821  0.91070434  0.14206031     0.36900
C315        C  0.52795613  0.94487995  0.26056226    -0.27400
C316        C  0.50764971  0.97650821  0.24792310     0.02200
C317        C  0.52970156  0.00783955  0.23603958     0.30300
C318        C  0.57173975  0.00753725  0.23710245    -0.19200
C319        C  0.59216488  0.97628906  0.25010533    -0.28600
C320        C  0.57004642  0.94461972  0.26171036     0.44400
C321        C  0.46336213  0.97735795  0.24800379     0.05500
O322        O  0.51031298  0.03908452  0.22367708    -0.57100
H323        H  0.58847371  0.03195191  0.22798388     0.18500
O324        O  0.58930720  0.91322468  0.27399624    -0.63800
H325        H  0.51108907  0.92059268  0.26971622     0.16900
C326        C  0.44093643  0.95258819  0.23084293     0.29200
C327        C  0.39883973  0.95362668  0.23154708    -0.24700
C328        C  0.37866029  0.97915113  0.24936769    -0.24000
C329        C  0.40144054  0.00462798  0.26612068     0.40500
C330        C  0.44345950  0.00339660  0.26543243    -0.26400
O331        O  0.45994762  0.92803654  0.21293941    -0.58300
H332        H  0.38193575  0.93402062  0.21840299     0.16300
O333        O  0.38300013  0.03121020  0.28301623    -0.59800
H334        H  0.46063966  0.02286603  0.27852023     0.14700
H335        H  0.59435259  0.89311606  0.25982923     0.46600
H336        H  0.46171675  0.90131280  0.22167907     0.42000
H337        H  0.37615668  0.05497472  0.27199792     0.45400
H338        H  0.51120945  0.03241780  0.20455694     0.36900
C339        C  0.33394198  0.98498191  0.75178410     0.03400
C340        C  0.31137510  0.98711986  0.72831511    -0.12800
C341        C  0.26914207  0.98709490  0.72910141     0.00900
C342        C  0.24974063  0.98384112  0.75365919    -0.11300
C343        C  0.27193194  0.98137077  0.77725864     0.03400
C344        C  0.31406343  0.98235925  0.77621500    -0.10700
H345        H  0.32674814  0.98926834  0.70947771     0.09000
H346        H  0.21716472  0.98272305  0.75442938     0.06500
H347        H  0.33140011  0.97962779  0.79429083     0.06300
C348        C  0.63628711  0.96850759  0.75086629     0.03400
C349        C  0.65902622  0.96927102  0.72743840    -0.12800
C350        C  0.70127392  0.97007918  0.72851097     0.00900
C351        C  0.72042176  0.97087255  0.75323543    -0.11300
C352        C  0.69806802  0.97076924  0.77676266     0.03400
C353        C  0.65594627  0.96910590  0.77545546    -0.10700
H354        H  0.64383148  0.96868955  0.70846471     0.09000
H355        H  0.75300335  0.97191453  0.75417857     0.06500
H356        H  0.63839166  0.96978779  0.79350028     0.06300
C357        C  0.96707623  0.33171590  0.75117828     0.03400
C358        C  0.96654912  0.31081937  0.72697397    -0.12800
C359        C  0.96403889  0.26847143  0.72647371     0.00900
C360        C  0.96239377  0.24726325  0.75044107    -0.11300
C361        C  0.96322005  0.26771959  0.77471976     0.03400
C362        C  0.96512519  0.31005950  0.77498893    -0.10700
H363        H  0.96734584  0.32762162  0.70861777     0.09000
H364        H  0.96156732  0.21452080  0.75022311     0.06500
H365        H  0.96557592  0.32613484  0.79367958     0.06300
C366        C  0.99299493  0.63524304  0.75173282     0.03400
C367        C  0.99840086  0.65731397  0.77528233    -0.12800
C368        C  0.00303377  0.69947018  0.77462073     0.00900
C369        C  0.00222486  0.71948783  0.75026158    -0.11300
C370        C  0.99618189  0.69801539  0.72667204     0.03400
C371        C  0.99231955  0.65583769  0.72741090    -0.10700
H372        H  0.99856689  0.64176974  0.79412741     0.09000
H373        H  0.00509235  0.75211246  0.74970961     0.06500
H374        H  0.98797273  0.63920753  0.70914361     0.06300
O375        O  0.09934509  0.98763764  0.54520700    -0.75000
O376        O  0.04846595  0.98613088  0.57524333    -0.54000
C377        C  0.08600586  0.98679802  0.56914205     0.78700
O378        O  0.97788196  0.09348949  0.95520287    -0.59700
O379        O  0.98095497  0.04237270  0.92518882    -0.52700
C380        C  0.97877184  0.08003146  0.93126621     0.70700
O381        O  0.97909740  0.09622256  0.54556340    -0.74200
O382        O  0.98352701  0.04489413  0.57523841    -0.54800
C383        C  0.98057784  0.08242768  0.56938965     0.76700
O384        O  0.09630945  0.98243014  0.95584338    -0.59400
O385        O  0.04533941  0.98259982  0.92577945    -0.52500
C386        C  0.08283942  0.98180395  0.93193129     0.73300
Zr387      Zr  0.07070492  0.98898891  0.50047790     2.54700
O388        O  0.11405077  0.04838568  0.50146903    -0.79900
O389        O  0.12878018  0.94493273  0.00353770    -0.93300
Zr390      Zr  0.98059871  0.06837460  0.50067182     2.64700
O391        O  0.03232314  0.12066680  0.50070365    -0.98300
O392        O  0.92178793  0.11187898  0.00049032    -0.80400
O393        O  0.02653520  0.02945944  0.52598402    -0.83700
O394        O  0.02513880  0.02781760  0.97510724    -2.18400
O395        O  0.00102216  0.86960338  0.95714197    -0.67100
O396        O  0.99119422  0.91946598  0.92695262    -0.51700
C397        C  0.99892562  0.88272745  0.93319307     0.71700
O398        O  0.87371202  0.97579703  0.54674790    -0.60000
O399        O  0.92565840  0.98005992  0.57594265    -0.52000
C400        C  0.88801505  0.97742249  0.57051690     0.73500
O401        O  0.87072699  0.97442859  0.95787097    -0.71400
O402        O  0.92102077  0.97755277  0.92741860    -0.50100
C403        C  0.88366329  0.97514185  0.93385985     0.74900
O404        O  0.98862719  0.87020779  0.54563507    -0.66700
O405        O  0.98810218  0.92166876  0.57544575    -0.53900
C406        C  0.98807338  0.88398166  0.56951720     0.73200
Zr407      Zr  0.99086844  0.89811275  0.50078791     2.77500
O408        O  0.94177023  0.84357857  0.49783806    -0.97500
O409        O  0.04672131  0.85084763  0.50315315    -0.78300
Zr410      Zr  0.90063254  0.97765947  0.50136845     2.70100
O411        O  0.85480424  0.92015573  0.50032592    -0.79500
O412        O  0.84535402  0.02572426  0.50303705    -0.98600
Zr413      Zr  0.98653813  0.98322841  0.55030255     2.21500
Zr414      Zr  0.98407108  0.98138730  0.95130168     2.11100
O415        O  0.94411955  0.93532547  0.97616563    -2.47300
O416        O  0.94545911  0.93714292  0.52638755    -0.79300
O417        O  0.03015270  0.94166500  0.97607306    -0.71500
O418        O  0.94042325  0.02371876  0.52614675    -2.32500
O419        O  0.03198299  0.94266057  0.52573733    -2.28700
O420        O  0.93866024  0.02175993  0.97596096    -0.73300
H421        H  0.04041057  0.04481196  0.96324799     0.78700
H422        H  0.92331151  0.03909658  0.53782010     0.79800
H423        H  0.92882914  0.91760195  0.96468975     0.82000
H424        H  0.04918340  0.92708720  0.53722775     0.79600
H425        H  0.90698414  0.10816273  0.48834892     0.42700
H426        H  0.82030449  0.00542088  0.00757442     0.41600
H427        H  0.86471921  0.90285367  0.48574782     0.41300
H428        H  0.95004085  0.82083543  0.00279526     0.39200
H429        H  0.06635266  0.85802928  0.99900732     0.42400
H430        H  0.15147987  0.96099292  0.49578782     0.37200
H431        H  0.10385648  0.06469464  0.51645807     0.43300
H432        H  0.04905853  0.11400578  0.98746349     0.39700
H433        H  0.92113582  0.85047852  0.51120450     0.44600
H434        H  0.12431837  0.92608404  0.48462753     0.43300
H435        H  0.01765865  0.14592828  0.50472652     0.43500
H436        H  0.82116226  0.00955135  0.49853855     0.43800
C437        C  0.97967546  0.74654641  0.84125699    -0.27400
C438        C  0.01200327  0.77351885  0.84426115     0.02200
C439        C  0.04230183  0.77483595  0.82487603     0.30300
C440        C  0.03955496  0.74984640  0.80253896    -0.19200
C441        C  0.00685661  0.72332025  0.79928631    -0.28600
C442        C  0.97683028  0.72171238  0.81890400     0.44400
C443        C  0.01246148  0.80155345  0.86704154     0.05500
O444        O  0.07512512  0.79965997  0.82804296    -0.57100
H445        H  0.06291809  0.75129085  0.78763727     0.18500
O446        O  0.94396009  0.69692247  0.81602520    -0.63800
H447        H  0.95597790  0.74561787  0.85595075     0.16900
C448        C  0.00858540  0.84333549  0.86311374     0.29200
C449        C  0.00478391  0.86911203  0.88483885    -0.24700
C450        C  0.00555297  0.85412895  0.91090103    -0.24000
C451        C  0.01182267  0.81232042  0.91476137     0.40600
C452        C  0.01439610  0.78636010  0.89288152    -0.26400
O453        O  0.00605630  0.85897191  0.83804875    -0.58300
H454        H  0.00062308  0.90102359  0.88104199     0.16300
O455        O  0.01444795  0.79624741  0.93968415    -0.59800
H456        H  0.01776300  0.75419118  0.89607768     0.14700
H457        H  0.92539490  0.71169917  0.80412621     0.46600
H458        H  0.03120872  0.87470959  0.83552626     0.42000
H459        H  0.04364968  0.79250856  0.94291645     0.45400
H460        H  0.07274606  0.82048366  0.81405752     0.36900
C461        C  0.95866652  0.77353513  0.67648683    -0.27400
C462        C  0.98640618  0.76871223  0.65584512     0.02200
C463        C  0.01625091  0.73867891  0.65790890     0.30300
C464        C  0.01845068  0.71459141  0.68068926    -0.19200
C465        C  0.99139684  0.72044944  0.70162344    -0.28600
C466        C  0.96093971  0.74965486  0.69917415     0.44400
C467        C  0.98582907  0.79759800  0.63348401     0.05500
O468        O  0.04515196  0.73481479  0.63872604    -0.57100
H469        H  0.04228178  0.69249487  0.68247774     0.18500
O470        O  0.93378847  0.75568130  0.71919805    -0.63800
H471        H  0.93555563  0.79647401  0.67519058     0.16900
C472        C  0.98274859  0.78461334  0.60705023     0.29200
C473        C  0.98398637  0.81287099  0.58645345    -0.24700
C474        C  0.98715111  0.85454209  0.59176250    -0.24000
C475        C  0.98878626  0.86740101  0.61849312     0.40600
C476        C  0.98817615  0.83904834  0.63890944    -0.26400
O477        O  0.97772048  0.74446553  0.60116440    -0.58300
H478        H  0.98189523  0.80200477  0.56627755     0.16300
O479        O  0.99063346  0.90757301  0.62511236    -0.59800
H480        H  0.99001295  0.84954718  0.65919500     0.14700
H481        H  0.91036634  0.73837658  0.71464617     0.46600
H482        H  0.94829602  0.74076878  0.59885236     0.42000
H483        H  0.01974338  0.91386521  0.62659440     0.45400
H484        H  0.03796224  0.70988849  0.62887424     0.36900
C485        C  0.99589626  0.22392990  0.84060726    -0.27400
C486        C  0.96755200  0.19286237  0.84392067     0.02200
C487        C  0.93611947  0.18847669  0.82545894     0.30300
C488        C  0.93418751  0.21406946  0.80350025    -0.19200
C489        C  0.96341482  0.24416910  0.79957735    -0.28600
C490        C  0.99420510  0.24929749  0.81850033     0.44400
C491        C  0.97172764  0.16429570  0.86620891     0.05500
O492        O  0.90678009  0.15975018  0.82908327    -0.57100
H493        H  0.91008776  0.21004518  0.78926867     0.18500
O494        O  0.02369152  0.27787513  0.81503253    -0.63800
H495        H  0.02020526  0.22757316  0.85472289     0.16900
C496        C  0.97803865  0.12290923  0.86154841     0.29200
C497        C  0.98049354  0.09602821  0.88280014    -0.24700
C498        C  0.97715756  0.10973656  0.90911942    -0.24000
C499        C  0.97207633  0.15165412  0.91363418     0.40600
C500        C  0.96942814  0.17841336  0.89227220    -0.26400
O501        O  0.98184203  0.10841396  0.83623808    -0.58300
H502        H  0.98497904  0.06428442  0.87853215     0.16300
O503        O  0.96849819  0.16687911  0.93875418    -0.59800
H504        H  0.96487552  0.21029891  0.89607065     0.14700
H505        H  0.04393628  0.26491180  0.80341123     0.46600
H506        H  0.01051983  0.11267339  0.83157796     0.42000
H507        H  0.99588228  0.17636679  0.94356950     0.45400
H508        H  0.91164578  0.13898969  0.81529715     0.36900
C509        C  0.99342440  0.22704214  0.65909782    -0.27400
C510        C  0.96555446  0.19547556  0.65616033     0.02200
C511        C  0.93566967  0.18975980  0.67546733     0.30300
C512        C  0.93465040  0.21475799  0.69773518    -0.19200
C513        C  0.96328708  0.24565707  0.70121090    -0.28600
C514        C  0.99241090  0.25218630  0.68139481     0.44400
C515        C  0.96944341  0.16706882  0.63379327     0.05500
O516        O  0.90794681  0.15918187  0.67304951    -0.57100
H517        H  0.91179888  0.20953636  0.71262272     0.18500
O518        O  0.02168739  0.28109708  0.68451294    -0.63800
H519        H  0.01690148  0.23130329  0.64450385     0.16900
C520        C  0.96618829  0.18025937  0.60749281     0.29200
C521        C  0.97006104  0.15254621  0.58670037    -0.24700
C522        C  0.97796694  0.11151849  0.59173661    -0.24000
C523        C  0.98221826  0.09876110  0.61833600     0.40600
C524        C  0.97741582  0.12637702  0.63897867    -0.26400
O525        O  0.95761860  0.21987619  0.60201200    -0.58300
H526        H  0.96652453  0.16329564  0.56661368     0.16300
O527        O  0.99080869  0.05938796  0.62456632    -0.59800
H528        H  0.98052135  0.11605274  0.65920882     0.14700
H529        H  0.01381720  0.30343032  0.67254100     0.46600
H530        H  0.98331837  0.23178045  0.59576869     0.42000
H531        H  0.02030274  0.05874539  0.62758415     0.45400
H532        H  0.88624913  0.17035805  0.66177154     0.36900
C533        C  0.00677203  0.43816176  0.74200170    -0.27400
C534        C  0.97570993  0.46123212  0.75312496     0.02200
C535        C  0.94158391  0.44149132  0.76345991     0.30300
C536        C  0.93917167  0.39923688  0.76290791    -0.19200
C537        C  0.97016548  0.37624582  0.75164301    -0.28600
C538        C  0.00407392  0.39598063  0.74107867     0.44400
C539        C  0.97930725  0.50584418  0.75370484     0.05500
O540        O  0.91051014  0.46322950  0.77414845    -0.57100
H541        H  0.91287810  0.38435639  0.77103837     0.18500
O542        O  0.03475433  0.37423940  0.72989721    -0.63800
H543        H  0.03306242  0.45297708  0.73381897     0.16900
C544        C  0.01138462  0.52480614  0.76710707     0.29200
C545        C  0.01538839  0.56691547  0.76647515    -0.24700
C546        C  0.98758135  0.59075468  0.75262360    -0.24000
C547        C  0.95481715  0.57178277  0.73983967     0.40600
C548        C  0.95099752  0.52964259  0.74033196    -0.26400
O549        O  0.03899341  0.50236118  0.78084891    -0.58300
H550        H  0.04058156  0.58097298  0.77657586     0.16300
O551        O  0.92616742  0.59416925  0.72701223    -0.59800
H552        H  0.92605323  0.51544674  0.73004631     0.14700
H553        H  0.05476921  0.37058675  0.74425046     0.46600
H554        H  0.02877273  0.50152823  0.79926010     0.42000
H555        H  0.90626278  0.60137861  0.74082383     0.45400
H556        H  0.91752173  0.46658232  0.79309465     0.36900
C557        C  0.83678202  0.96594166  0.86537471    -0.27400
C558        C  0.79610116  0.97309733  0.87074839     0.02200
C559        C  0.78373630  0.97902811  0.89703638     0.30300
C560        C  0.81231314  0.97908551  0.91748278    -0.19200
C561        C  0.85350775  0.97315811  0.91208169    -0.28600
C562        C  0.86532173  0.96568869  0.88564339     0.44400
C563        C  0.76748414  0.97535911  0.84839614     0.05500
O564        O  0.74397039  0.98546743  0.90287240    -0.57100
H565        H  0.80220315  0.98452676  0.93753025     0.18500
O566        O  0.90470819  0.95834104  0.87917211    -0.63800
H567        H  0.84651255  0.96059554  0.84522147     0.16900
C568        C  0.77298158  0.00449820  0.82851324     0.29200
C569        C  0.74901761  0.00356681  0.80581289    -0.24700
C570        C  0.71938403  0.97367892  0.80245451    -0.24000
C571        C  0.71249628  0.94569498  0.82297152     0.40600
C572        C  0.73655279  0.94667055  0.84578029    -0.26400
O573        O  0.80163555  0.03415653  0.83124922    -0.58300
H574        H  0.75410928  0.02587150  0.79050714     0.16300
O575        O  0.68346025  0.91639427  0.82051550    -0.59800
H576        H  0.73209392  0.92407465  0.86097931     0.14700
H577        H  0.90870399  0.92910144  0.88248133     0.46600
H578        H  0.82465690  0.02521390  0.82026148     0.42000
H579        H  0.69682712  0.89362475  0.81131309     0.45400
H580        H  0.74012709  0.01505566  0.90126757     0.36900
C581        C  0.84608150  0.97843579  0.64086339    -0.27400
C582        C  0.80480714  0.97316328  0.63640167     0.02200
C583        C  0.79068659  0.97007484  0.61019420     0.30300
C584        C  0.81784669  0.97162014  0.58897586    -0.19200
C585        C  0.85947818  0.97635724  0.59335173    -0.28600
C586        C  0.87325951  0.98022416  0.61981509     0.44400
C587        C  0.77699429  0.97103405  0.65934166     0.05500
O588        O  0.75041042  0.96526248  0.60507449    -0.57100
H589        H  0.80617616  0.96886720  0.56904271     0.18500
O590        O  0.91326699  0.98560409  0.62558266    -0.63800
H591        H  0.85736522  0.98164074  0.66087670     0.16900
C592        C  0.78314237  0.94266417  0.67967483     0.29200
C593        C  0.75765007  0.94211548  0.70168963    -0.24700
C594        C  0.72601130  0.96991487  0.70407816    -0.24000
C595        C  0.71983077  0.99830231  0.68374168     0.40600
C596        C  0.74503063  0.99849979  0.66150481    -0.26400
O597        O  0.81335851  0.91464008  0.67782584    -0.58300
H598        H  0.76273406  0.91992529  0.71705639     0.16300
O599        O  0.69013293  0.02680427  0.68580983    -0.59800
H600        H  0.74031798  0.02093514  0.64624864     0.14700
H601        H  0.91723356  0.01529663  0.62623889     0.46600
H602        H  0.83457423  0.92406657  0.69021835     0.42000
H603        H  0.70340109  0.05076946  0.69381126     0.45400
H604        H  0.74457076  0.93642667  0.60877057     0.36900
C605        C  0.13022598  0.98060723  0.86330555    -0.27400
C606        C  0.17096170  0.97490786  0.86945534     0.02200
C607        C  0.18271018  0.97185823  0.89606925     0.30300
C608        C  0.15381569  0.97428055  0.91611611    -0.19200
C609        C  0.11277278  0.97981586  0.91010486    -0.28600
C610        C  0.10125250  0.98322246  0.88323925     0.44400
C611        C  0.20068829  0.97292282  0.84773966     0.05500
O612        O  0.22232176  0.96619669  0.90268618    -0.57100
H613        H  0.16372274  0.97151303  0.93644730     0.18500
O614        O  0.06186949  0.98905273  0.87605825    -0.63800
H615        H  0.12086723  0.98359032  0.84286420     0.16900
C616        C  0.19626992  0.94433767  0.82732575     0.29200
C617        C  0.22098440  0.94636750  0.80502279    -0.24700
C618        C  0.25044922  0.97661600  0.80272014    -0.24000
C619        C  0.25684710  0.00342440  0.82402785     0.40600
C620        C  0.23185488  0.00156708  0.84631130    -0.26400
O621        O  0.16800144  0.91416899  0.82917008    -0.58300
H622        H  0.21653179  0.92475069  0.78915880     0.16300
O623        O  0.28632160  0.03245726  0.82285133    -0.59800
H624        H  0.23574459  0.02357264  0.86200528     0.14700
H625        H  0.05828390  0.01878169  0.87567909     0.46600
H626        H  0.14610280  0.92200343  0.81688221     0.42000
H627        H  0.27306046  0.05656808  0.81522107     0.45400
H628        H  0.22616999  0.93650236  0.90261010     0.36900
C629        C  0.18787119  0.01421318  0.67927434    -0.27400
C630        C  0.19623739  0.98736700  0.65847601     0.02200
C631        C  0.23028000  0.96226407  0.66029418     0.30300
C632        C  0.25437384  0.96314286  0.68307891    -0.19200
C633        C  0.24510828  0.98893501  0.70431522    -0.28600
C634        C  0.21209965  0.01537436  0.70191493     0.44400
C635        C  0.16863760  0.98545226  0.63535876     0.05500
O636        O  0.23969375  0.93607866  0.64020172    -0.57100
H637        H  0.27968951  0.94271033  0.68446755     0.18500
O638        O  0.20333078  0.04263175  0.72152841    -0.63800
H639        H  0.16240995  0.03447525  0.67791125     0.16900
C640        C  0.12723013  0.97854777  0.63898570     0.29200
C641        C  0.10110787  0.97893833  0.61728828    -0.24700
C642        C  0.11537579  0.98594794  0.59147737    -0.24000
C643        C  0.15722295  0.99159738  0.58779568     0.40600
C644        C  0.18335637  0.99139907  0.60963764    -0.26400
O645        O  0.11225881  0.96977957  0.66361421    -0.58300
H646        H  0.06942331  0.97351760  0.62085507     0.16300
O647        O  0.17309689  0.99719368  0.56304444    -0.59800
H648        H  0.21520035  0.99657949  0.60650607     0.14700
H649        H  0.22083921  0.06631147  0.71795661     0.46600
H650        H  0.09638633  0.99379331  0.66890168     0.42000
H651        H  0.17406806  0.02688519  0.56055891     0.45400
H652        H  0.22667065  0.91014774  0.64505750     0.36900
C653        C  0.52636892  0.94127929  0.76075229    -0.27400
C654        C  0.50731831  0.97523415  0.74990483     0.02200
C655        C  0.53078509  0.00627488  0.73880105     0.30300
C656        C  0.57275687  0.00315004  0.73858996    -0.19200
C657        C  0.59188158  0.96957386  0.74979747    -0.28600
C658        C  0.56842911  0.93842327  0.76089554     0.44400
C659        C  0.46292963  0.97800399  0.75008169     0.05500
O660        O  0.51290885  0.03990564  0.72828842    -0.57100
H661        H  0.59050997  0.02742358  0.73016829     0.18500
O662        O  0.58636712  0.90529160  0.77204440    -0.63800
H663        H  0.50857191  0.91721822  0.76939295     0.16900
C664        C  0.43939922  0.95067381  0.73533815     0.29200
C665        C  0.39740676  0.95371597  0.73565240    -0.24700
C666        C  0.37836935  0.98368607  0.75074617    -0.24000
C667        C  0.40197214  0.01163040  0.76502842     0.40500
C668        C  0.44398207  0.00856673  0.76471402    -0.26400
O669        O  0.45731744  0.92183296  0.71985101    -0.58300
H670        H  0.37961880  0.93228591  0.72435309     0.16300
O671        O  0.38425914  0.04225870  0.77908405    -0.59800
H672        H  0.46185632  0.03004802  0.77591080     0.14700
H673        H  0.58851277  0.88527036  0.75750572     0.46600
H674        H  0.45564463  0.89648570  0.73021279     0.42000
H675        H  0.37987425  0.06418777  0.76606345     0.45400
H676        H  0.50938492  0.03375055  0.70922479     0.36900
loop_ 
_geom_bond_atom_site_label_1 
_geom_bond_atom_site_label_2 
_geom_bond_distance 
_geom_bond_site_symmetry_2 
_ccdc_geom_bond_type 
C1            C2   1.407       .  A
C1            C6   1.407       .  A
C1          C328   1.483       .  S
C2            C3   1.403       .  A
C2            H7   1.084       .  S
C3            C4   1.401       .  A
C3          C295   1.482       .  S
C4            C5   1.401       .  A
C4            H8   1.084       .  S
C5            C6   1.400       .  A
C5          C280   1.479       .  S
C6            H9   1.083       .  S
C10          C11   1.402       .  A
C10          C15   1.406       .  A
C10         C319   1.475       .  S
C11          C12   1.400       .  A
C11          H16   1.084       .  S
C12          C13   1.402       .  A
C12         C256   1.479       .  S
C13          C14   1.402       .  A
C13          H17   1.084       .  S
C14          C15   1.405       .  A
C14         C232   1.483       .  S
C15          H18   1.084       .  S
C19          C20   1.405       .  A
C19          C24   1.402       .  A
C19         C199   1.478       .  S
C20          C21   1.401       .  A
C20          H25   1.084       .  S
C21          C22   1.403       .  A
C21         C175   1.478       .  S
C22          C23   1.402       .  A
C22          H26   1.084       .  S
C23          C24   1.400       .  A
C23         C151   1.476       .  S
C24          H27   1.084       .  S
C28          C29   1.404   1_655  A
C28          C33   1.410       .  A
C28         C208   1.482       .  S
C29          C30   1.397       .  A
C29          H34   1.084   1_455  S
C30          C31   1.397       .  A
C30         C103   1.471       .  S
C31          C32   1.402   1_455  A
C31          H35   1.084       .  S
C32          C33   1.405       .  A
C32         C127   1.482       .  S
C33          H36   1.083       .  S
O37         Zr49   2.448       .  S
O37          C39   1.289       .  A
O38         Zr75   2.404   1_455  S
O38          C39   1.284       .  A
C39         C304   1.487       .  S
O40        Zr390   2.453       .  S
O40          C42   1.290       .  A
O41         Zr76   2.409   1_545  S
O41          C42   1.285       .  A
C42         C160   1.490       .  S
O43         Zr52   2.444       .  S
O43          C45   1.289       .  A
O44         Zr75   2.417   1_545  S
O44          C45   1.285       .  A
C45         C184   1.490       .  S
O46        Zr387   2.449       .  S
O46          C48   1.289       .  A
O47         Zr76   2.415   1_455  S
O47          C48   1.285       .  A
C48         C271   1.491       .  S
Zr49        O384   2.444   1_554  S
Zr49         O50   2.434   1_564  S
Zr49        O389   2.435       .  S
Zr49         O55   2.368   1_565  S
Zr49         O81   2.373       .  S
Zr49        O394   2.370   1_564  S
Zr49        O417   2.372   1_554  S
O50          H93   0.990       .  S
O51        Zr387   2.436       .  S
O51         H430   0.990       .  S
O51         H434   0.991       .  S
Zr52        O378   2.452   1_554  S
Zr52         O53   2.436   1_654  S
Zr52        O392   2.436       .  S
Zr52         O55   2.376   1_655  S
Zr52         O80   2.372       .  S
Zr52        O394   2.369   1_654  S
Zr52        O420   2.370   1_554  S
O53          H97   0.990       .  S
O53         H432   0.990       .  S
O54        Zr390   2.435       .  S
O54         H425   0.990       .  S
O55         Zr75   2.376   1_445  S
O56         Zr76   2.379   1_445  S
O56        Zr387   2.377   1_545  S
O56        Zr390   2.375   1_455  S
O56          H83   0.967       .  S
O57        Zr407   2.445       .  S
O57          C59   1.288       .  A
O58         Zr76   2.408       .  S
O58          C59   1.284       .  A
C59         C112   1.487       .  S
O60         Zr72   2.452       .  S
O60          C62   1.290       .  A
O61         Zr75   2.408       .  S
O61          C62   1.284       .  A
C62         C247   1.488       .  S
O63        Zr410   2.453       .  S
O63          C65   1.290       .  A
O64         Zr76   2.408       .  S
O64          C65   1.284       .  A
C65         C223   1.487       .  S
O66         Zr69   2.449       .  S
O66          C68   1.290       .  A
O67         Zr75   2.420       .  S
O67          C68   1.286       .  A
C68         C136   1.489       .  S
Zr69        O395   2.449   1_654  S
Zr69         O70   2.434   1_554  S
Zr69         O71   2.434   1_655  S
Zr69         O78   2.374       .  S
Zr69         O81   2.373   1_655  S
Zr69        O415   2.372   1_554  S
Zr69        O417   2.372   1_654  S
O70          H95   0.990   1_556  S
O70         H428   0.990   1_556  S
O71         H429   0.990   1_554  S
Zr72        O401   2.443   1_554  S
Zr72         O73   2.435       .  S
Zr72         O74   2.435   1_565  S
Zr72         O78   2.371       .  S
Zr72         O80   2.373   1_565  S
Zr72        O415   2.377   1_554  S
Zr72        O420   2.378   1_564  S
O73          H89   0.990       .  S
O74          H98   0.990       .  S
O74         H426   0.990       .  S
Zr75         O78   2.374       .  S
Zr75         O80   2.380   1_565  S
Zr75         O81   2.380   1_655  S
Zr76         O77   2.378       .  S
Zr76         O79   2.375   1_655  S
Zr76         O82   2.376   1_565  S
O77        Zr407   2.371       .  S
O77        Zr410   2.376       .  S
O77          H85   0.967       .  S
O79        Zr387   2.376       .  S
O79        Zr407   2.374   1_455  S
O80          H84   0.966       .  S
O81          H86   0.965       .  S
O82        Zr390   2.374       .  S
O82        Zr410   2.378   1_545  S
H87         O392   0.990       .  S
H88         O412   0.990       .  S
H90         O408   0.990       .  S
H91         O409   0.990       .  S
H92         O389   0.990   1_556  S
H94         O391   0.990       .  S
H96         O389   0.990   1_556  S
C99         C100   1.403   1_655  A
C99         C104   1.399       .  A
C99         H109   1.084       .  S
C100        C101   1.407       .  A
C100        C105   1.475       .  S
C101        C102   1.399       .  A
C101        O106   1.373       .  S
C102        C103   1.401       .  A
C102        H107   1.084       .  S
C103        C104   1.407   1_455  A
C104        O108   1.372       .  S
C105        C110   1.404       .  A
C105        C114   1.400   1_455  A
O106        H122   0.992       .  S
O108        H119   0.992       .  S
C110        C111   1.398   1_455  A
C110        O115   1.373       .  S
C111        C112   1.409       .  A
C111        H116   1.083       .  S
C112        C113   1.415       .  A
C113        C114   1.400       .  A
C113        O117   1.371       .  S
C114        H118   1.084       .  S
O115        H120   0.992       .  S
O117        H121   0.992   1_655  S
C123        C124   1.400       .  A
C123        C128   1.397       .  A
C123        H133   1.084       .  S
C124        C125   1.408   1_655  A
C124        C129   1.478       .  S
C125        C126   1.404       .  A
C125        O130   1.371       .  S
C126        C127   1.405   1_455  A
C126        H131   1.083       .  S
C127        C128   1.411       .  A
C128        O132   1.372       .  S
C129        C134   1.406       .  A
C129        C138   1.400   1_655  A
O130        H146   0.991       .  S
O132        H143   0.992       .  S
C134        C135   1.402       .  A
C134        O139   1.372       .  S
C135        C136   1.409       .  A
C135        H140   1.083       .  S
C136        C137   1.415   1_655  A
C137        C138   1.399       .  A
C137        O141   1.372       .  S
C138        H142   1.084       .  S
O139        H144   0.992       .  S
O141        H145   0.992       .  S
C147        C148   1.404   1_455  A
C147        C152   1.397       .  A
C147        H157   1.083       .  S
C148        C149   1.408       .  A
C148        C153   1.480       .  S
C149        C150   1.400       .  A
C149        O154   1.371       .  S
C150        C151   1.404       .  A
C150        H155   1.084       .  S
C151        C152   1.406   1_655  A
C152        O156   1.372       .  S
C153        C158   1.406       .  A
C153        C162   1.402       .  A
O154        H170   0.992       .  S
O156        H167   0.992       .  S
C158        C159   1.397       .  A
C158        O163   1.373       .  S
C159        C160   1.409       .  A
C159        H164   1.083       .  S
C160        C161   1.415       .  A
C161        C162   1.402       .  A
C161        O165   1.371       .  S
C162        H166   1.084       .  S
O163        H168   0.992       .  S
O165        H169   0.992   1_655  S
C171        C172   1.402   1_455  A
C171        C176   1.402       .  A
C171        H181   1.084       .  S
C172        C173   1.406       .  A
C172        C177   1.476       .  S
C173        C174   1.397       .  A
C173        O178   1.371       .  S
C174        C175   1.403       .  A
C174        H179   1.084       .  S
C175        C176   1.409   1_655  A
C176        O180   1.371       .  S
C177        C182   1.403       .  A
C177        C186   1.400       .  A
O178        H194   0.992       .  S
O180        H191   0.992       .  S
C182        C183   1.401       .  A
C182        O187   1.371       .  S
C183        C184   1.411       .  A
C183        H188   1.083       .  S
C184        C185   1.416       .  A
C185        C186   1.397       .  A
C185        O189   1.372       .  S
C186        H190   1.084       .  S
O187        H192   0.992       .  S
O189        H193   0.992   1_655  S
C195        C196   1.399   1_455  A
C195        C200   1.396       .  A
C195        H205   1.084       .  S
C196        C197   1.405       .  A
C196        C201   1.468       .  S
C197        C198   1.398       .  A
C197        O202   1.372       .  S
C198        C199   1.406       .  A
C198        H203   1.084       .  S
C199        C200   1.410   1_655  A
C200        O204   1.372       .  S
C201        C206   1.403   1_655  A
C201        C210   1.399       .  A
O202        H218   0.992       .  S
O204        H215   0.992       .  S
C206        C207   1.398       .  A
C206        O211   1.372       .  S
C207        C208   1.407   1_455  A
C207        H212   1.083       .  S
C208        C209   1.410       .  A
C209        C210   1.398       .  A
C209        O213   1.371       .  S
C210        H214   1.084       .  S
O211        H216   0.992       .  S
O213        H217   0.992       .  S
C219        C220   1.400       .  A
C219        C224   1.397       .  A
C219        H229   1.084       .  S
C220        C221   1.405       .  A
C220        C225   1.477       .  S
C221        C222   1.402       .  A
C221        O226   1.371       .  S
C222        C223   1.408       .  A
C222        H227   1.083       .  S
C223        C224   1.416       .  A
C224        O228   1.372       .  S
C225        C230   1.406   1_565  A
C225        C234   1.403       .  A
O226        H242   0.992   1_565  S
O228        H239   0.992       .  S
C230        C231   1.397       .  A
C230        O235   1.372       .  S
C231        C232   1.405   1_545  A
C231        H236   1.084       .  S
C232        C233   1.411       .  A
C233        C234   1.402       .  A
C233        O237   1.371       .  S
C234        H238   1.084       .  S
O235        H240   0.992       .  S
O237        H241   0.992       .  S
C243        C244   1.401       .  A
C243        C248   1.397       .  A
C243        H253   1.084       .  S
C244        C245   1.405       .  A
C244        C249   1.478       .  S
C245        C246   1.400       .  A
C245        O250   1.371       .  S
C246        C247   1.409       .  A
C246        H251   1.083       .  S
C247        C248   1.416       .  A
C248        O252   1.372       .  S
C249        C254   1.407       .  A
C249        C258   1.404   1_565  A
O250        H266   0.992       .  S
O252        H263   0.992   1_565  S
C254        C255   1.396       .  A
C254        O259   1.372       .  S
C255        C256   1.403       .  A
C255        H260   1.084       .  S
C256        C257   1.410   1_565  A
C257        C258   1.401       .  A
C257        O261   1.372       .  S
C258        H262   1.084       .  S
O259        H264   0.992       .  S
O261        H265   0.992       .  S
C267        C268   1.401       .  A
C267        C272   1.398       .  A
C267        H277   1.084       .  S
C268        C269   1.406       .  A
C268        C273   1.480       .  S
C269        C270   1.401       .  A
C269        O274   1.372       .  S
C270        C271   1.410       .  A
C270        H275   1.083       .  S
C271        C272   1.416       .  A
C272        O276   1.372       .  S
C273        C278   1.407       .  A
C273        C282   1.404   1_565  A
O274        H290   0.992       .  S
O276        H287   0.992   1_565  S
C278        C279   1.397       .  A
C278        O283   1.372       .  S
C279        C280   1.402       .  A
C279        H284   1.084       .  S
C280        C281   1.410   1_565  A
C281        C282   1.402       .  A
C281        O285   1.372       .  S
C282        H286   1.084       .  S
O283        H288   0.992       .  S
O285        H289   0.992       .  S
C291        C292   1.401   1_545  A
C291        C296   1.396       .  A
C291        H301   1.084       .  S
C292        C293   1.408       .  A
C292        C297   1.477       .  S
C293        C294   1.402       .  A
C293        O298   1.372       .  S
C294        C295   1.405       .  A
C294        H299   1.083       .  S
C295        C296   1.410   1_565  A
C296        O300   1.372       .  S
C297        C302   1.403       .  A
C297        C306   1.402       .  A
O298        H314   0.992       .  S
O300        H311   0.992       .  S
C302        C303   1.394       .  A
C302        O307   1.372       .  S
C303        C304   1.408       .  A
C303        H308   1.083       .  S
C304        C305   1.415       .  A
C305        C306   1.403       .  A
C305        O309   1.372   1_565  S
C306        H310   1.084   1_565  S
O307        H312   0.992       .  S
O309        H313   0.992       .  S
C315        C316   1.402       .  A
C315        C320   1.400       .  A
C315        H325   1.084       .  S
C316        C317   1.405   1_565  A
C316        C321   1.472       .  S
C317        C318   1.398       .  A
C317        O322   1.372       .  S
C318        C319   1.403   1_545  A
C318        H323   1.084       .  S
C319        C320   1.408       .  A
C320        O324   1.372       .  S
C321        C326   1.405       .  A
C321        C330   1.400   1_565  A
O322        H338   0.992       .  S
O324        H335   0.992       .  S
C326        C327   1.400       .  A
C326        O331   1.372       .  S
C327        C328   1.406       .  A
C327        H332   1.083       .  S
C328        C329   1.412   1_565  A
C329        C330   1.398       .  A
C329        O333   1.372       .  S
C330        H334   1.084       .  S
O331        H336   0.992       .  S
O333        H337   0.992       .  S
C339        C340   1.405       .  A
C339        C344   1.404       .  A
C339        C666   1.478       .  S
C340        C341   1.404       .  A
C340        H345   1.084       .  S
C341        C342   1.404       .  A
C341        C633   1.487       .  S
C342        C343   1.405       .  A
C342        H346   1.084       .  S
C343        C344   1.401       .  A
C343        C618   1.481       .  S
C344        H347   1.084       .  S
C348        C349   1.406       .  A
C348        C353   1.404       .  A
C348        C657   1.477       .  S
C349        C350   1.405       .  A
C349        H354   1.084       .  S
C350        C351   1.402       .  A
C350        C594   1.485       .  S
C351        C352   1.403       .  A
C351        H355   1.084       .  S
C352        C353   1.402       .  A
C352        C570   1.482       .  S
C353        H356   1.084       .  S
C357        C358   1.405       .  A
C357        C362   1.404       .  A
C357        C537   1.478       .  S
C358        C359   1.404       .  A
C358        H363   1.083       .  S
C359        C360   1.403       .  A
C359        C513   1.483       .  S
C360        C361   1.401       .  A
C360        H364   1.084       .  S
C361        C362   1.403       .  A
C361        C489   1.480       .  S
C362        H365   1.084       .  S
C366        C367   1.407       .  A
C366        C371   1.407       .  A
C366        C546   1.484       .  S
C367        C368   1.404   1_655  A
C367        H372   1.084       .  S
C368        C369   1.400       .  A
C368        C441   1.480       .  S
C369        C370   1.401   1_455  A
C369        H373   1.084       .  S
C370        C371   1.402       .  A
C370        C465   1.478       .  S
C371        H374   1.084       .  S
O375       Zr387   2.453       .  S
O375        C377   1.290       .  A
O376       Zr413   2.414   1_455  S
O376        C377   1.286       .  A
C377        C642   1.492       .  S
O378        C380   1.289       .  A
O379       Zr414   2.417   1_545  S
O379        C380   1.286       .  A
C380        C498   1.493       .  S
O381       Zr390   2.449       .  S
O381        C383   1.290       .  A
O382       Zr413   2.400   1_545  S
O382        C383   1.282       .  A
C383        C522   1.486       .  S
O384        C386   1.289       .  A
O385       Zr414   2.412   1_455  S
O385        C386   1.284       .  A
C386        C609   1.488       .  S
Zr387       O388   2.434   1_565  S
Zr387       O393   2.371   1_565  S
Zr387       O419   2.375       .  S
O388        H431   0.990       .  S
Zr390       O391   2.436   1_655  S
Zr390       O393   2.375   1_655  S
Zr390       O418   2.372       .  S
O391        H435   0.990       .  S
O393       Zr413   2.371   1_445  S
O394       Zr414   2.377   1_445  S
O394        H421   0.966       .  S
O395        C397   1.289   1_455  A
O396       Zr414   2.402       .  S
O396        C397   1.284       .  A
C397        C450   1.488   1_655  S
O398       Zr410   2.465       .  S
O398        C400   1.293       .  A
O399       Zr413   2.406       .  S
O399        C400   1.283       .  A
C400        C585   1.495       .  S
O401        C403   1.289       .  A
O402       Zr414   2.420       .  S
O402        C403   1.286       .  A
C403        C561   1.489       .  S
O404       Zr407   2.451       .  S
O404        C406   1.290       .  A
O405       Zr413   2.405       .  S
O405        C406   1.283       .  A
C406        C474   1.490       .  S
Zr407       O408   2.434       .  S
Zr407       O409   2.434   1_655  S
Zr407       O416   2.373       .  S
Zr407       O419   2.368   1_655  S
O408        H433   0.990       .  S
Zr410       O411   2.435       .  S
Zr410       O412   2.435   1_565  S
Zr410       O416   2.373       .  S
Zr410       O418   2.371   1_565  S
O411        H427   0.990       .  S
O412        H436   0.991       .  S
Zr413       O416   2.373       .  S
Zr413       O418   2.377   1_565  S
Zr413       O419   2.374   1_655  S
Zr414       O415   2.381       .  S
Zr414       O417   2.378   1_655  S
Zr414       O420   2.373   1_565  S
O415        H423   0.967       .  S
O418        H422   0.966       .  S
O419        H424   0.965       .  S
C437        C438   1.403   1_655  A
C437        C442   1.399       .  A
C437        H447   1.084       .  S
C438        C439   1.407       .  A
C438        C443   1.478       .  S
C439        C440   1.401       .  A
C439        O444   1.373       .  S
C440        C441   1.404       .  A
C440        H445   1.084       .  S
C441        C442   1.409   1_455  A
C442        O446   1.372       .  S
C443        C448   1.404       .  A
C443        C452   1.402       .  A
O444        H460   0.992       .  S
O446        H457   0.992       .  S
C448        C449   1.396       .  A
C448        O453   1.372       .  S
C449        C450   1.409       .  A
C449        H454   1.083       .  S
C450        C451   1.414       .  A
C451        C452   1.402       .  A
C451        O455   1.372       .  S
C452        H456   1.084       .  S
O453        H458   0.992       .  S
O455        H459   0.992       .  S
C461        C462   1.403       .  A
C461        C466   1.396       .  A
C461        H471   1.084       .  S
C462        C463   1.410   1_655  A
C462        C467   1.482       .  S
C463        C464   1.404       .  A
C463        O468   1.372       .  S
C464        C465   1.403   1_455  A
C464        H469   1.084       .  S
C465        C466   1.407       .  A
C466        O470   1.372       .  S
C467        C472   1.407       .  A
C467        C476   1.401       .  A
O468        H484   0.992       .  S
O470        H481   0.992       .  S
C472        C473   1.402       .  A
C472        O477   1.371       .  S
C473        C474   1.409       .  A
C473        H478   1.083       .  S
C474        C475   1.417       .  A
C475        C476   1.397       .  A
C475        O479   1.372       .  S
C476        H480   1.084       .  S
O477        H482   0.992       .  S
O479        H483   0.992   1_655  S
C485        C486   1.403       .  A
C485        C490   1.401       .  A
C485        H495   1.084   1_655  S
C486        C487   1.407       .  A
C486        C491   1.479       .  S
C487        C488   1.399       .  A
C487        O492   1.373       .  S
C488        C489   1.404       .  A
C488        H493   1.084       .  S
C489        C490   1.410       .  A
C490        O494   1.372   1_655  S
C491        C496   1.406       .  A
C491        C500   1.400       .  A
O492        H508   0.992       .  S
O494        H505   0.992       .  S
C496        C497   1.399       .  A
C496        O501   1.372       .  S
C497        C498   1.410       .  A
C497        H502   1.083       .  S
C498        C499   1.417       .  A
C499        C500   1.401       .  A
C499        O503   1.371       .  S
C500        H504   1.084       .  S
O501        H506   0.992   1_655  S
O503        H507   0.992       .  S
C509        C510   1.402       .  A
C509        C514   1.401       .  A
C509        H519   1.084   1_655  S
C510        C511   1.406       .  A
C510        C515   1.476       .  S
C511        C512   1.397       .  A
C511        O516   1.372       .  S
C512        C513   1.406       .  A
C512        H517   1.084       .  S
C513        C514   1.410       .  A
C514        O518   1.371   1_655  S
C515        C520   1.405       .  A
C515        C524   1.399       .  A
O516        H532   0.992       .  S
O518        H529   0.992       .  S
C520        C521   1.400       .  A
C520        O525   1.372       .  S
C521        C522   1.408       .  A
C521        H526   1.083       .  S
C522        C523   1.417       .  A
C523        C524   1.396       .  A
C523        O527   1.372       .  S
C524        H528   1.084       .  S
O525        H530   0.992       .  S
O527        H531   0.992   1_655  S
C533        C534   1.404   1_455  A
C533        C538   1.400       .  A
C533        H543   1.084       .  S
C534        C535   1.409       .  A
C534        C539   1.482       .  S
C535        C536   1.401       .  A
C535        O540   1.371       .  S
C536        C537   1.403       .  A
C536        H541   1.084       .  S
C537        C538   1.407   1_655  A
C538        O542   1.372       .  S
C539        C544   1.408   1_655  A
C539        C548   1.403       .  A
O540        H556   0.992       .  S
O542        H553   0.992       .  S
C544        C545   1.400       .  A
C544        O549   1.372       .  S
C545        C546   1.404   1_455  A
C545        H550   1.084       .  S
C546        C547   1.411       .  A
C547        C548   1.401       .  A
C547        O551   1.371       .  S
C548        H552   1.084       .  S
O549        H554   0.992       .  S
O551        H555   0.992       .  S
C557        C558   1.400       .  A
C557        C562   1.396       .  A
C557        H567   1.084       .  S
C558        C559   1.405       .  A
C558        C563   1.478       .  S
C559        C560   1.403       .  A
C559        O564   1.372       .  S
C560        C561   1.411       .  A
C560        H565   1.083       .  S
C561        C562   1.415       .  A
C562        O566   1.372       .  S
C563        C568   1.406   1_565  A
C563        C572   1.403       .  A
O564        H580   0.992   1_565  S
O566        H577   0.992       .  S
C568        C569   1.396       .  A
C568        O573   1.372       .  S
C569        C570   1.404   1_545  A
C569        H574   1.084       .  S
C570        C571   1.411       .  A
C571        C572   1.403       .  A
C571        O575   1.372       .  S
C572        H576   1.083       .  S
O573        H578   0.992       .  S
O575        H579   0.992       .  S
C581        C582   1.400       .  A
C581        C586   1.398       .  A
C581        H591   1.084       .  S
C582        C583   1.409       .  A
C582        C587   1.486       .  S
C583        C584   1.404       .  A
C583        O588   1.372       .  S
C584        C585   1.409       .  A
C584        H589   1.083       .  S
C585        C586   1.419       .  A
C586        O590   1.372       .  S
C587        C592   1.409       .  A
C587        C596   1.405       .  A
O588        H604   0.992       .  S
O590        H601   0.992   1_565  S
C592        C593   1.400       .  A
C592        O597   1.372       .  S
C593        C594   1.405       .  A
C593        H598   1.084       .  S
C594        C595   1.410       .  A
C595        C596   1.403       .  A
C595        O599   1.371   1_565  S
C596        H600   1.083   1_565  S
O597        H602   0.992       .  S
O599        H603   0.992       .  S
C605        C606   1.402       .  A
C605        C610   1.398       .  A
C605        H615   1.084       .  S
C606        C607   1.405       .  A
C606        C611   1.479       .  S
C607        C608   1.399       .  A
C607        O612   1.371       .  S
C608        C609   1.410       .  A
C608        H613   1.083       .  S
C609        C610   1.416       .  A
C610        O614   1.372       .  S
C611        C616   1.406       .  A
C611        C620   1.404   1_565  A
O612        H628   0.992       .  S
O614        H625   0.992   1_565  S
C616        C617   1.398       .  A
C616        O621   1.372       .  S
C617        C618   1.404       .  A
C617        H622   1.084       .  S
C618        C619   1.410   1_565  A
C619        C620   1.402       .  A
C619        O623   1.372       .  S
C620        H624   1.084       .  S
O621        H626   0.992       .  S
O623        H627   0.991       .  S
C629        C630   1.404   1_545  A
C629        C634   1.399       .  A
C629        H639   1.084       .  S
C630        C631   1.409       .  A
C630        C635   1.486       .  S
C631        C632   1.402       .  A
C631        O636   1.371       .  S
C632        C633   1.406       .  A
C632        H637   1.083       .  S
C633        C634   1.411   1_565  A
C634        O638   1.372       .  S
C635        C640   1.407       .  A
C635        C644   1.404       .  A
O636        H652   0.992       .  S
O638        H649   0.992       .  S
C640        C641   1.398       .  A
C640        O645   1.373       .  S
C641        C642   1.408       .  A
C641        H646   1.083       .  S
C642        C643   1.415       .  A
C643        C644   1.404       .  A
C643        O647   1.371       .  S
C644        H648   1.083       .  S
O645        H650   0.992       .  S
O647        H651   0.992   1_565  S
C653        C654   1.404       .  A
C653        C658   1.401       .  A
C653        H663   1.084       .  S
C654        C655   1.406   1_565  A
C654        C659   1.478       .  S
C655        C656   1.399       .  A
C655        O660   1.371       .  S
C656        C657   1.402   1_545  A
C656        H661   1.084       .  S
C657        C658   1.409       .  A
C658        O662   1.372       .  S
C659        C664   1.406       .  A
C659        C668   1.404   1_565  A
O660        H676   0.992       .  S
O662        H673   0.992       .  S
C664        C665   1.400       .  A
C664        O669   1.372       .  S
C665        C666   1.403       .  A
C665        H670   1.084       .  S
C666        C667   1.409   1_565  A
C667        C668   1.400       .  A
C667        O671   1.372       .  S
C668        H672   1.084       .  S
O669        H674   0.992       .  S
O671        H675   0.992       .  S
