geometry optimzed in LAMMPS
_audit_creation_date              2020-11-30 
_audit_creation_method            'lammps2cif' 
_symmetry_space_group_name_H-M    'P1' 
_symmetry_Int_Tables_number       1 
_symmetry_cell_setting            triclinic 
loop_ 
_symmetry_equiv_pos_as_xyz 
  x,y,z 
_cell_length_a                    28.22109959 
_cell_length_b                    28.11961936241537 
_cell_length_c                    28.207539059275458 
_cell_angle_alpha                 90.72474219004805 
_cell_angle_beta                  89.84925147216352 
_cell_angle_gamma                 89.97646423716678 
loop_ 
_atom_site_label 
_atom_site_type_symbol 
_atom_site_fract_x 
_atom_site_fract_y 
_atom_site_fract_z 
_atom_site_charge 
C1          C  0.83925641  0.83548443  0.84237175     0.84600
C2          C  0.87149558  0.81036126  0.87795323    -0.55700
C3          C  0.90280787  0.84029202  0.89972234     0.07500
C4          C  0.89927053  0.89203101  0.88509442     0.18400
C5          C  0.81589200  0.87542250  0.87204113    -0.56400
C6          C  0.84762134  0.90444058  0.89425015     0.07600
C7          C  0.87322758  0.86108290  0.80864764    -0.55900
C8          C  0.90440488  0.89062431  0.83122344     0.08200
H9          H  0.86972730  0.77258675  0.88539855     0.12700
H10         H  0.92476753  0.91576741  0.90382653    -0.01600
H11         H  0.77840500  0.87869163  0.87952021     0.13000
H12         H  0.87223553  0.85668583  0.77034085     0.12800
N13         N  0.78143369  0.91951258  0.43208674    -0.08000
N14         N  0.75314524  0.92697459  0.46862307    -0.60200
N15         N  0.80694007  0.95843306  0.32268587    -0.07700
N16         N  0.79523195  0.99294207  0.29286595    -0.62300
N17         N  0.77387621  0.92538178  0.32230087    -0.07300
N18         N  0.73991758  0.93641667  0.29170027    -0.60100
N19         N  0.81546350  0.95149961  0.43171311    -0.07000
N20         N  0.81128986  0.98109830  0.46784611    -0.62600
C21         C  0.77254993  0.96523577  0.49075342     0.94100
C22         C  0.75349438  0.97860014  0.27303185     0.93900
N23         N  0.95254193  0.91651872  0.31774920    -0.08200
N24         N  0.98046316  0.92176046  0.28080871    -0.60700
N25         N  0.92769637  0.95384135  0.42808539    -0.06300
N26         N  0.94037348  0.98793946  0.45869062    -0.62000
N27         N  0.95991296  0.91985802  0.42711243    -0.08300
N28         N  0.99504623  0.93079114  0.45691059    -0.61000
N29         N  0.92005874  0.95013141  0.31908407    -0.06000
N30         N  0.92524297  0.97905208  0.28327559    -0.62100
Mn31       Mn  0.86755249  0.95467217  0.37532523     1.18400
C32         C  0.96279073  0.96071718  0.25967698     0.96200
C33         C  0.98248776  0.97339369  0.47691345     0.96900
N34         N  0.77483761  0.81335130  0.31752728    -0.08300
N35         N  0.74429252  0.80975472  0.28254548    -0.64600
N36         N  0.80550339  0.77180275  0.42397273    -0.07100
N37         N  0.79478498  0.73751720  0.45425484    -0.65300
N38         N  0.77359708  0.80596510  0.42671279    -0.07800
N39         N  0.74066201  0.79522680  0.45869942    -0.64800
N40         N  0.80704630  0.77957623  0.31429026    -0.06700
N41         N  0.79891871  0.75215229  0.27693729    -0.65500
Mn42       Mn  0.77474606  0.86609547  0.37493980     1.10700
C43         C  0.75986651  0.77169885  0.25738748     0.97400
C44         C  0.75425048  0.75241615  0.47603198     0.97500
N45         N  0.95245568  0.80421736  0.42303838    -0.07800
N46         N  0.98609303  0.79142456  0.45235832    -0.63200
N47         N  0.92096346  0.77208604  0.31286773    -0.07100
N48         N  0.93205990  0.73801496  0.28152756    -0.59900
N49         N  0.95550720  0.80358051  0.31532061    -0.08400
N50         N  0.99065439  0.79094096  0.28630610    -0.62700
N51         N  0.91863384  0.77185259  0.42167678    -0.07400
N52         N  0.92839256  0.73671714  0.45048534    -0.59900
Mn53       Mn  0.95611902  0.86123695  0.37119277     1.20200
Mn54       Mn  0.86278726  0.77276583  0.36801724     1.10100
Cl55       Cl  0.86537022  0.86362802  0.37253067    -0.87900
C56         C  0.97036238  0.74963217  0.46935918     0.94500
C57         C  0.97551420  0.75035990  0.26459830     0.94200
N58         N  0.96477012  0.42980873  0.91955082    -0.08000
N59         N  0.99880151  0.46172708  0.92851094    -0.60200
N60         N  0.93048780  0.32209049  0.95582436    -0.07700
N61         N  0.94314705  0.29448872  0.99091300    -0.62300
N62         N  0.96244181  0.32036468  0.92169394    -0.07300
N63         N  0.99719236  0.29127240  0.93267579    -0.60100
N64         N  0.93258174  0.43129534  0.95357668    -0.07000
N65         N  0.94443111  0.46420350  0.98584143    -0.62600
C66         C  0.98580058  0.48352835  0.97006545     0.94100
C67         C  0.98449806  0.27535548  0.97576629     0.93900
N68         N  0.78144025  0.31839277  0.92867350    -0.08200
N69         N  0.74802081  0.28735966  0.94079166    -0.60700
N70         N  0.81886504  0.42952620  0.95316684    -0.06300
N71         N  0.81084689  0.46325862  0.98483874    -0.62000
N72         N  0.78488588  0.42825591  0.92123984    -0.08300
N73         N  0.75300896  0.46133055  0.93073562    -0.61000
N74         N  0.81460236  0.32040987  0.96162454    -0.06000
N75         N  0.80322236  0.29132560  0.99698740    -0.62100
Mn76       Mn  0.87399580  0.37562597  0.95690346     1.18400
C77         C  0.76173818  0.27017319  0.98347595     0.96200
C78         C  0.76997958  0.48300378  0.97026177     0.96900
N79         N  0.96110448  0.31228526  0.80757934    -0.08300
N80         N  0.99585235  0.28270572  0.79485287    -0.64600
N81         N  0.92450969  0.41803838  0.77304182    -0.07100
N82         N  0.93604874  0.44434078  0.73639600    -0.65300
N83         N  0.95762424  0.42058318  0.80578024    -0.07800
N84         N  0.99219700  0.44839715  0.79217632    -0.64800
N85         N  0.92613324  0.30911743  0.77672301    -0.06700
N86         N  0.93633910  0.27686254  0.74335532    -0.65500
Mn87       Mn  0.96206172  0.37078901  0.86361174     1.10700
C88         C  0.97972423  0.25990054  0.75520801     0.97400
C89         C  0.97824215  0.46303876  0.74916725     0.97500
N90         N  0.77842345  0.42167513  0.80663609    -0.07800
N91         N  0.74394937  0.45084692  0.79302881    -0.63200
N92         N  0.81243435  0.31070946  0.78153318    -0.07100
N93         N  0.80040386  0.27886340  0.74912458    -0.59900
N94         N  0.77992837  0.31321350  0.81504009    -0.08400
N95         N  0.74507999  0.28330363  0.80593588    -0.62700
N96         N  0.81170290  0.41972548  0.77374940    -0.07400
N97         N  0.80084415  0.44810745  0.73806797    -0.59900
Mn98       Mn  0.78029446  0.37051300  0.86814744     1.20200
Mn99       Mn  0.86867181  0.36424363  0.77573029     1.10100
Cl100      Cl  0.87125189  0.37016293  0.86616589    -0.87900
C101        C  0.75867414  0.46792264  0.75044808     0.94500
C102        C  0.75860835  0.26179123  0.76501461     0.94200
N103        N  0.42650257  0.78201724  0.91403013    -0.08000
N104        N  0.46087934  0.75070780  0.91717027    -0.60200
N105        N  0.32151273  0.81811253  0.95682824    -0.07700
N106        N  0.29293492  0.80678396  0.99277918    -0.62300
N107        N  0.31750100  0.78588166  0.92275641    -0.07300
N108        N  0.28566268  0.75321365  0.93442326    -0.60100
N109        N  0.43089952  0.81547199  0.94678586    -0.07000
N110        N  0.46859178  0.80757998  0.97295462    -0.62600
C111        C  0.48699272  0.76727963  0.95376064     0.94100
C112        C  0.26995936  0.76646785  0.97810327     0.93900
N113        N  0.33064686  0.96673740  0.91807252    -0.08200
N114        N  0.30206336  0.00226705  0.92950998    -0.60700
N115        N  0.43803665  0.92908360  0.95157538    -0.06300
N116        N  0.46993047  0.93839372  0.98515820    -0.62000
N117        N  0.43956252  0.96207189  0.91870936    -0.08300
N118        N  0.47271705  0.99414695  0.92985008    -0.61000
N119        N  0.32977896  0.93391460  0.95118806    -0.06000
N120        N  0.30080407  0.94655914  0.98557489    -0.62100
Mn121      Mn  0.37985505  0.87409307  0.95272123     1.18400
C122        C  0.28373333  0.98892950  0.97159919     0.96200
C123        C  0.49189044  0.97901411  0.97141449     0.96900
N124        N  0.31269858  0.78939159  0.81169784    -0.08300
N125        N  0.27329709  0.76470865  0.80939100    -0.64600
N126        N  0.42354586  0.80829362  0.76997679    -0.07100
N127        N  0.45397137  0.79527875  0.73615361    -0.65300
N128        N  0.42094043  0.77518119  0.80240662    -0.07800
N129        N  0.44891553  0.73874360  0.79068129    -0.64800
N130        N  0.31421503  0.82121515  0.77800771    -0.06700
N131        N  0.27578359  0.81876895  0.75181107    -0.65500
Mn132      Mn  0.36927170  0.78210427  0.86270710     1.10700
C133        C  0.25052615  0.78360804  0.77212076     0.97400
C134        C  0.46995436  0.75183652  0.74943273     0.97500
N135        N  0.43661463  0.95435549  0.80451378    -0.07800
N136        N  0.47378915  0.98105403  0.79545759    -0.63200
N137        N  0.32368254  0.93233102  0.77084162    -0.07100
N138        N  0.29266916  0.94271968  0.73710375    -0.59900
N139        N  0.32733906  0.96784816  0.80160506    -0.08400
N140        N  0.29922771  0.00349114  0.78804197    -0.62700
N141        N  0.43251948  0.92036665  0.77224206    -0.07400
N142        N  0.46660036  0.92326775  0.74059158    -0.59900
Mn143      Mn  0.38343843  0.96416236  0.86058302     1.20200
Mn144      Mn  0.37353339  0.87047307  0.77172020     1.10100
Cl145      Cl  0.37635301  0.87294561  0.86208730    -0.87900
C146        C  0.49225846  0.96091545  0.75574508     0.94500
C147        C  0.27704810  0.98717798  0.74788012     0.94200
C148        C  0.39687735  0.32719560  0.91125022     0.84600
C149        C  0.43135496  0.35478138  0.87962820    -0.55700
C150        C  0.40971451  0.38510768  0.84899192     0.07500
C151        C  0.35540277  0.38554504  0.85349750     0.18400
C152        C  0.36805045  0.36590346  0.93644055    -0.56400
C153        C  0.34670624  0.39629159  0.90601004     0.07600
C154        C  0.36225236  0.30321944  0.87747580    -0.55900
C155        C  0.34117788  0.33354539  0.84702900     0.08200
H156        H  0.46953841  0.35083149  0.88203259     0.12700
H157        H  0.33684800  0.40974046  0.82892007    -0.01600
H158        H  0.36468845  0.37054806  0.97443068     0.13000
H159        H  0.35637273  0.26500010  0.87626802     0.12800
C160        C  0.40172490  0.83211985  0.38719265     0.84600
C161        C  0.37975638  0.87142250  0.41857150    -0.55700
C162        C  0.35344667  0.90327906  0.39395567     0.07500
C163        C  0.35163399  0.89408609  0.34077283     0.18400
C164        C  0.35937710  0.81048198  0.36020087    -0.56400
C165        C  0.33370050  0.84339204  0.33626067     0.07600
C166        C  0.42969701  0.85849445  0.34887239    -0.55900
C167        C  0.40324540  0.89105657  0.32520687     0.08200
H168        H  0.38234034  0.87225797  0.45700213     0.12700
H169        H  0.33014296  0.92034328  0.32097495    -0.01600
H170        H  0.35074982  0.77305406  0.35761593     0.13000
H171        H  0.46719155  0.85292218  0.34193603     0.12800
C172        C  0.91808805  0.39340121  0.32629236     0.84600
C173        C  0.88645169  0.42909906  0.35308957    -0.55700
C174        C  0.85476356  0.40852632  0.38334936     0.07500
C175        C  0.85811863  0.35391060  0.38415271     0.18400
C176        C  0.94159431  0.36429189  0.36499549    -0.56400
C177        C  0.91007615  0.34383763  0.39494889     0.07600
C178        C  0.88389742  0.35890104  0.30222767    -0.55900
C179        C  0.85221287  0.33906413  0.33236578     0.08200
H180        H  0.88818692  0.46709483  0.34702757     0.12700
H181        H  0.83331525  0.33606752  0.40877096    -0.01600
H182        H  0.97924423  0.35848010  0.36895206     0.13000
H183        H  0.88325931  0.35231259  0.26417173     0.13600
N184        N  0.21856745  0.06669951  0.66671604    -0.08000
N185        N  0.25344807  0.05852718  0.69739477    -0.60200
N186        N  0.18111613  0.03451971  0.55673413    -0.07700
N187        N  0.19169096  0.00343008  0.52297515    -0.62300
N188        N  0.21214433  0.06951522  0.55721296    -0.07300
N189        N  0.24434596  0.06295400  0.52400388    -0.60100
N190        N  0.18861563  0.03064854  0.66611729    -0.07000
N191        N  0.20344803  0.99730643  0.69585616    -0.62600
C192        C  0.24363261  0.01521350  0.71611834     0.94100
C193        C  0.23093969  0.02196236  0.50270761     0.93900
N194        N  0.03187461  0.05573506  0.56309959    -0.08200
N195        N  0.99710747  0.04334137  0.53361798    -0.60700
N196        N  0.07427756  0.02727766  0.66953596    -0.06300
N197        N  0.06770572  0.99375560  0.70103153    -0.62000
N198        N  0.04005158  0.05915103  0.67228811    -0.08300
N199        N  0.00988356  0.04817663  0.70612261    -0.61000
N200        N  0.06649424  0.02418043  0.56065282    -0.06000
N201        N  0.05527270  0.98983981  0.52955061    -0.62100
Mn202      Mn  0.12772166  0.02798311  0.61305366     1.18400
C203        C  0.01183105  0.00215279  0.51245725     0.96200
C204        C  0.02792412  0.00769453  0.72391713     0.96900
N205        N  0.20872655  0.18349063  0.55799023    -0.08300
N206        N  0.24156795  0.19813335  0.52749590    -0.64600
N207        N  0.17479142  0.21182851  0.66769059    -0.07100
N208        N  0.18491210  0.24686248  0.69741637    -0.65300
N209        N  0.20930734  0.18040299  0.66626512    -0.07800
N210        N  0.24369815  0.19334029  0.69480050    -0.64800
N211        N  0.17297759  0.21366656  0.55877317    -0.06700
N212        N  0.18068555  0.24859978  0.52826087    -0.65500
Mn213      Mn  0.21292982  0.12484340  0.61214190     1.10700
C214        C  0.22342597  0.23839395  0.50819607     0.97400
C215        C  0.22790159  0.23453868  0.71404742     0.97500
N216        N  0.02984526  0.17386288  0.67369907    -0.07800
N217        N  0.99537532  0.18597097  0.70390070    -0.63200
N218        N  0.06108887  0.20371917  0.56492331    -0.07100
N219        N  0.04900303  0.23738389  0.53574200    -0.59900
N220        N  0.02889617  0.16987371  0.56533291    -0.08400
N221        N  0.99386403  0.18013958  0.53630564    -0.62700
N222        N  0.06245439  0.20744579  0.67330289    -0.07400
N223        N  0.05115945  0.24204737  0.70378620    -0.59900
Mn224      Mn  0.03165436  0.11441472  0.61872712     1.20200
Mn225      Mn  0.11771333  0.20956640  0.61621825     1.10100
Cl226      Cl  0.12247327  0.11908982  0.61506766    -0.87900
C227        C  0.00946438  0.22827179  0.72329518     0.94500
C228        C  0.00735381  0.22227859  0.51812190     0.94200
N229        N  0.06173065  0.67441224  0.20793153    -0.08000
N230        N  0.04916142  0.70237842  0.24420305    -0.60200
N231        N  0.03798265  0.56630741  0.16217246    -0.07700
N232        N  0.01046481  0.52884402  0.16483077    -0.62300
N233        N  0.07066859  0.56543205  0.19531555    -0.07300
N234        N  0.06628371  0.52720010  0.22116457    -0.60100
N235        N  0.02848911  0.67443729  0.17525980    -0.07000
N236        N  0.99239539  0.70169816  0.18940294    -0.62600
C237        C  0.00585993  0.71961514  0.23231942     0.94100
C238        C  0.02882824  0.50474687  0.20149349     0.93900
N239        N  0.06593659  0.57412609  0.01774929    -0.08200
N240        N  0.05542861  0.54276212  0.98324307    -0.60700
N241        N  0.03594596  0.68270492  0.06256644    -0.06300
N242        N  0.00655245  0.71875750  0.05905759    -0.62000
N243        N  0.06919272  0.68498636  0.02983184    -0.08300
N244        N  0.06310866  0.72274125  0.00343675    -0.61000
N245        N  0.03299344  0.57273159  0.05087946    -0.06000
N246        N  0.00006627  0.54071315  0.03954340    -0.62100
Mn247      Mn  0.03265043  0.62421360  0.11259228     1.18400
C248        C  0.01402531  0.52169598  0.99722940     0.96200
C249        C  0.02409901  0.74356987  0.02227591     0.96900
N250        N  0.18177574  0.56986805  0.20369295    -0.08300
N251        N  0.19152454  0.53718801  0.23590523    -0.64600
N252        N  0.20706651  0.68261390  0.17298747    -0.07100
N253        N  0.23269269  0.72110062  0.18040592    -0.65300
N254        N  0.17345658  0.67952323  0.20521348    -0.07800
N255        N  0.17550083  0.71551943  0.23528761    -0.64800
N256        N  0.21574572  0.57158332  0.17167240    -0.06700
N257        N  0.24921378  0.53970314  0.18191572    -0.65500
Mn258      Mn  0.12195376  0.62230802  0.20414337     1.10700
C259        C  0.23365933  0.51808090  0.22221658     0.97400
C260        C  0.21230602  0.74130297  0.21916304     0.97500
N261        N  0.18283691  0.68601728  0.02562128    -0.07800
N262        N  0.19622718  0.71587444  0.99181779    -0.63200
N263        N  0.21312506  0.57760911  0.05721988    -0.07100
N264        N  0.24742387  0.54810051  0.04571779    -0.59900
N265        N  0.18037181  0.57763899  0.02390452    -0.08400
N266        N  0.19169512  0.54809501  0.98920943    -0.62700
N267        N  0.21438963  0.68643034  0.06008146    -0.07400
N268        N  0.24893713  0.71712271  0.05037074    -0.59900
Mn269      Mn  0.12434663  0.63057500  0.02298781     1.20200
Mn270      Mn  0.21386440  0.62946125  0.11571995     1.10100
Cl271      Cl  0.12332347  0.62662271  0.11373457    -0.87900
C272        C  0.23711202  0.73608733  0.00788301     0.94500
C273        C  0.23336748  0.52998643  0.00355002     0.94200
N274        N  0.69091473  0.06410953  0.03586771    -0.08000
N275        N  0.72798142  0.05814797  0.00809319    -0.60200
N276        N  0.57965201  0.02307232  0.05481094    -0.07700
N277        N  0.54770966  0.99029133  0.04240197    -0.62300
N278        N  0.58172532  0.05625473  0.02232423    -0.07300
N279        N  0.55122761  0.04646215  0.98751432    -0.60100
N280        N  0.68908731  0.03052242  0.06798754    -0.07000
N281        N  0.72487217  0.00086294  0.06240601    -0.62600
C282        C  0.74904964  0.01889026  0.02525692     0.94100
C283        C  0.52985690  0.00508594  0.00017883     0.93900
N284        N  0.56511931  0.06012659  0.20030090    -0.08200
N285        N  0.52751283  0.05161812  0.22663465    -0.60700
N286        N  0.67783277  0.02582318  0.18181904    -0.06300
N287        N  0.70745890  0.99211264  0.19636737    -0.62000
N288        N  0.67428484  0.05958860  0.21456083    -0.08300
N289        N  0.70212323  0.04959577  0.25118130    -0.61000
N290        N  0.56968757  0.02711252  0.16704794    -0.06000
N291        N  0.53550187  0.99557643  0.17009049    -0.62100
Mn292      Mn  0.62933370  0.02534512  0.11787175     1.18400
C293        C  0.50929518  0.01147647  0.20706475     0.96200
C294        C  0.72328875  0.00757049  0.23947232     0.96900
N295        N  0.57758760  0.16803991  0.02860169    -0.08300
N296        N  0.54205203  0.17034755  0.99878503    -0.64600
N297        N  0.68285658  0.21091407  0.06536162    -0.07100
N298        N  0.71101511  0.24760744  0.05538520    -0.65300
N299        N  0.68592330  0.17844927  0.03130804    -0.07800
N300        N  0.71554276  0.19318081  0.99762811    -0.64800
N301        N  0.57345963  0.20070386  0.06213468    -0.06700
N302        N  0.53475111  0.22578231  0.05619854    -0.65500
Mn303      Mn  0.63446936  0.11661898  0.02839920     1.10700
C304        C  0.51563273  0.20620219  0.01681668     0.97400
C305        C  0.73205446  0.23613002  0.01319731     0.97500
N306        N  0.67069863  0.17356859  0.21270666    -0.07800
N307        N  0.69858825  0.18484834  0.24849002    -0.63200
N308        N  0.56401310  0.20684027  0.17343286    -0.07100
N309        N  0.53228928  0.24094717  0.18213005    -0.59900
N310        N  0.56232918  0.17465933  0.20695599    -0.08400
N311        N  0.53001456  0.18719796  0.23934813    -0.62700
N312        N  0.67255962  0.20638910  0.17978788    -0.07400
N313        N  0.70149944  0.24070276  0.19254544    -0.59900
Mn314      Mn  0.61805971  0.11672785  0.20970276     1.20200
Mn315      Mn  0.62360320  0.20712137  0.12002708     1.10100
Cl316      Cl  0.62678646  0.11646999  0.11911429    -0.87900
C317        C  0.71748843  0.22667921  0.23515744     0.94500
C318        C  0.51046118  0.22823101  0.22308212     0.94200
C319        C  0.58008812  0.59992949  0.14175641     0.84600
C320        C  0.60773354  0.63884487  0.16830224    -0.55700
C321        C  0.63980728  0.66179159  0.14068091     0.07500
C322        C  0.64106034  0.64511093  0.08909163     0.18400
C323        C  0.55760354  0.62599427  0.09971900    -0.56400
C324        C  0.58997874  0.64939912  0.07266756     0.07600
C325        C  0.61800943  0.56777968  0.11891528    -0.55900
C326        C  0.64933065  0.59169821  0.09130155     0.08200
H327        H  0.60369486  0.64638044  0.20597818     0.12700
H328        H  0.66701021  0.66436656  0.06666409    -0.01600
H329        H  0.52006238  0.62846531  0.09240533     0.13000
H330        H  0.61852988  0.52932572  0.12226309     0.12800
C331        C  0.13949885  0.65811618  0.66093073     0.84600
C332        C  0.11765205  0.61352375  0.68239178    -0.55700
C333        C  0.10016380  0.58250843  0.64934398     0.07500
C334        C  0.10590030  0.59833328  0.59802997     0.18400
C335        C  0.17686689  0.63910228  0.62573085    -0.56400
C336        C  0.15927933  0.60762885  0.59293497     0.07600
C337        C  0.10006291  0.67850700  0.63045242    -0.55900
C338        C  0.08330021  0.64758011  0.59726868     0.08200
H339        H  0.11272230  0.60747430  0.71988600     0.12700
H340        H  0.09093327  0.57290767  0.57160029    -0.01600
H341        H  0.21397726  0.64924808  0.62714262     0.13000
H342        H  0.08835623  0.71531430  0.63270285     0.12800
N343        N  0.26967943  0.32136789  0.42255600    -0.08000
N344        N  0.23495559  0.29221110  0.43598233    -0.60200
N345        N  0.31160792  0.42952839  0.44988446    -0.07700
N346        N  0.30535332  0.46315098  0.48217044    -0.62300
N347        N  0.27807107  0.43110324  0.41755003    -0.07300
N348        N  0.24811213  0.46596378  0.42753598    -0.60100
N349        N  0.30431733  0.32007051  0.45376516    -0.07000
N350        N  0.29423172  0.28961613  0.48796959    -0.62600
C351        C  0.25095969  0.27192345  0.47667943     0.94100
C352        C  0.26589304  0.48583549  0.46775522     0.93900
N353        N  0.45792117  0.42146078  0.42000648    -0.08200
N354        N  0.49420917  0.44869269  0.43338233    -0.60700
N355        N  0.41612782  0.31502143  0.44905810    -0.06300
N356        N  0.42195894  0.28052365  0.47958916    -0.62000
N357        N  0.44883256  0.31287341  0.41579535    -0.08300
N358        N  0.47737963  0.27673748  0.42265721    -0.61000
N359        N  0.42385226  0.42412177  0.45196155    -0.06000
N360        N  0.43594847  0.45386449  0.48675922    -0.62100
Mn361      Mn  0.36397233  0.37225805  0.45179427     1.18400
C362        C  0.47976111  0.46946022  0.47479583     0.96200
C363        C  0.45999196  0.25678756  0.46229454     0.96900
N364        N  0.27538810  0.42778620  0.30239102    -0.08300
N365        N  0.24407521  0.46134127  0.29148661    -0.64600
N366        N  0.30647937  0.31484048  0.27454946    -0.07100
N367        N  0.29619793  0.28070094  0.24375929    -0.65300
N368        N  0.27330739  0.31790883  0.30755966    -0.07800
N369        N  0.24005386  0.28587325  0.29976957    -0.64800
N370        N  0.30825120  0.42488043  0.26905926    -0.06700
N371        N  0.29967027  0.45662967  0.23539006    -0.65500
Mn372      Mn  0.27285214  0.37468817  0.36235071     1.10700
C373        C  0.25946227  0.47954696  0.24962786     0.97400
C374        C  0.25487542  0.26278816  0.26010032     0.97500
N375        N  0.45435550  0.31054815  0.30413112    -0.07800
N376        N  0.48884008  0.27975067  0.29421091    -0.63200
N377        N  0.42107773  0.42028864  0.27252870    -0.07100
N378        N  0.42902178  0.45417937  0.24177557    -0.59900
N379        N  0.45405488  0.42025683  0.30551177    -0.08400
N380        N  0.48536254  0.45399359  0.29759252    -0.62700
N381        N  0.42269896  0.31068661  0.26982191    -0.07400
N382        N  0.43633852  0.28050682  0.23544844    -0.59900
Mn383      Mn  0.45468362  0.36648441  0.36133466     1.20200
Mn384      Mn  0.36447152  0.36727200  0.27032140     1.10100
Cl385      Cl  0.36389580  0.37019907  0.36132823    -0.87900
C386        C  0.47737950  0.26052696  0.25143912     0.94500
C387        C  0.46900119  0.47499225  0.25798748     0.94200
N388        N  0.52628645  0.66624051  0.67228479    -0.08000
N389        N  0.49082882  0.67760708  0.70150222    -0.60200
N390        N  0.56244739  0.69905332  0.56433970    -0.07700
N391        N  0.55391195  0.73132833  0.53211845    -0.62300
N392        N  0.52985846  0.66554536  0.56309125    -0.07300
N393        N  0.49852438  0.67433680  0.52976295    -0.60100
N394        N  0.55824684  0.70048964  0.67246963    -0.07000
N395        N  0.54439286  0.73579857  0.70109772    -0.62600
C396        C  0.50264244  0.72094177  0.71986148     0.94100
C397        C  0.51422362  0.71529525  0.51065941     0.93900
N398        N  0.70902225  0.67113840  0.56281028    -0.08200
N399        N  0.74205659  0.68248128  0.53119073    -0.60700
N400        N  0.67252331  0.69784223  0.67333443    -0.06300
N401        N  0.68134707  0.72902805  0.70740015    -0.62000
N402        N  0.70599355  0.66519629  0.67163806    -0.08300
N403        N  0.73828820  0.67358000  0.70421804    -0.61000
N404        N  0.67565623  0.70394391  0.56405161    -0.06000
N405        N  0.68568173  0.73807972  0.53332396    -0.62100
Mn406      Mn  0.61729213  0.70130687  0.61872231     1.18400
C407        C  0.72721899  0.72433315  0.51269022     0.96200
C408        C  0.72223459  0.71316146  0.72646520     0.96900
N409        N  0.52861920  0.55170110  0.55927713    -0.08300
N410        N  0.49428659  0.54012178  0.52915497    -0.64600
N411        N  0.56431322  0.51887593  0.66607086    -0.07100
N412        N  0.55541679  0.48514866  0.69682779    -0.65300
N413        N  0.53092365  0.55161528  0.66780059    -0.07800
N414        N  0.49860252  0.54071455  0.69965365    -0.64800
N415        N  0.56286830  0.51984233  0.55688309    -0.06700
N416        N  0.55256363  0.48667328  0.52451058    -0.65500
Mn417      Mn  0.52799076  0.60875128  0.61580255     1.10700
C418        C  0.50986124  0.49995676  0.50685945     0.97400
C419        C  0.51452145  0.49937861  0.71761973     0.97500
N420        N  0.71074622  0.55151793  0.66777459    -0.07800
N421        N  0.74450185  0.53990178  0.69840639    -0.63200
N422        N  0.67603837  0.52407804  0.55743997    -0.07100
N423        N  0.68598204  0.49374849  0.52274203    -0.59900
N424        N  0.70775986  0.55832843  0.55891874    -0.08400
N425        N  0.73963086  0.55232712  0.52536233    -0.62700
N426        N  0.67753677  0.51855303  0.66715200    -0.07400
N427        N  0.68786505  0.48463103  0.69790265    -0.59900
Mn428      Mn  0.70930846  0.61154394  0.61534755     1.20200
Mn429      Mn  0.62027834  0.51927927  0.61181915     1.10100
Cl430      Cl  0.61865391  0.61023042  0.61558594    -0.87900
C431        C  0.72954536  0.49842617  0.71779840     0.94500
C432        C  0.72555029  0.51217788  0.50291438     0.94200
C433        C  0.58438822  0.14427025  0.57480617     0.84600
C434        C  0.56029969  0.10546309  0.60375241    -0.55700
C435        C  0.58969370  0.08428752  0.63522097     0.07500
C436        C  0.64025755  0.10309365  0.63517160     0.18400
C437        C  0.60634136  0.17855755  0.61151127    -0.56400
C438        C  0.63550666  0.15658634  0.64273896     0.07600
C439        C  0.62713263  0.11877859  0.55171148    -0.55900
C440        C  0.65579597  0.09739434  0.58385064     0.08200
H441        H  0.52323463  0.09569959  0.59989030     0.12700
H442        H  0.66415166  0.08532099  0.66075407    -0.01600
H443        H  0.60109398  0.21683412  0.61139008     0.13000
H444        H  0.63291832  0.11361118  0.51406991     0.12800
C445        C  0.07721423  0.07323007  0.13765065     0.84600
C446        C  0.11360429  0.04996564  0.10446419    -0.55700
C447        C  0.14439621  0.08141768  0.08486938     0.07500
C448        C  0.13548984  0.13341705  0.09883812     0.18400
C449        C  0.10642110  0.10212278  0.17353984    -0.56400
C450        C  0.13700707  0.13361596  0.15337427     0.07600
C451        C  0.05284705  0.11005231  0.10676329    -0.55900
C452        C  0.08318084  0.14179319  0.08721488     0.08200
H453        H  0.11557514  0.01218622  0.09653758     0.12700
H454        H  0.15993663  0.15913878  0.08195959    -0.01600
H455        H  0.10342063  0.09746068  0.21160155     0.13000
H456        H  0.01483465  0.11146159  0.10091059     0.12800
C457        C  0.24282457  0.20668494  0.19186835    -0.15300
C458        C  0.22626110  0.22716206  0.23444033     0.06900
C459        C  0.18082354  0.21552522  0.25092679    -0.15300
C460        C  0.15200467  0.18478166  0.22476597    -0.15300
C461        C  0.16814775  0.16505879  0.18169164     0.06900
C462        C  0.21392555  0.17589395  0.16564258    -0.15300
H463        H  0.27781596  0.21499643  0.17848715     0.10900
H464        H  0.16708383  0.23100914  0.28351639     0.10900
H465        H  0.11661542  0.17745006  0.23766354     0.10900
H466        H  0.22745572  0.16044945  0.13295381     0.10900
C467        C  0.52352540  0.19697344  0.46659854    -0.15300
C468        C  0.48597355  0.22117343  0.48860240     0.06900
C469        C  0.47824866  0.21657924  0.53729630    -0.15300
C470        C  0.50994664  0.19076090  0.56427650    -0.15300
C471        C  0.54949935  0.16866809  0.54296537     0.06900
C472        C  0.55512704  0.17087499  0.49347408    -0.15300
H473        H  0.52974879  0.20001316  0.42883656     0.10900
H474        H  0.44946093  0.23517894  0.55497788     0.10900
H475        H  0.50451103  0.18922991  0.60226935     0.10900
H476        H  0.58431054  0.15436132  0.47494585     0.10900
C477        C  0.17221916  0.57100201  0.51289849    -0.15300
C478        C  0.18924551  0.58154891  0.55851907     0.06900
C479        C  0.23340185  0.56371668  0.57247492    -0.15300
C480        C  0.25924705  0.53417268  0.54197469    -0.15300
C481        C  0.24136778  0.52196392  0.49699804     0.06900
C482        C  0.19816700  0.54147249  0.48226025    -0.15300
H483        H  0.13845262  0.58489680  0.50126884     0.10900
H484        H  0.24694276  0.57077266  0.60775788     0.10900
H485        H  0.29239202  0.51947209  0.55435943     0.10900
H486        H  0.18375108  0.53274172  0.44769381     0.10900
C487        C  0.49961294  0.56443356  0.16503429    -0.15300
C488        C  0.54803851  0.57212522  0.17423713     0.06900
C489        C  0.56862805  0.55055890  0.21393834    -0.15300
C490        C  0.54219361  0.52085838  0.24273387    -0.15300
C491        C  0.49473577  0.51151818  0.23199651     0.06900
C492        C  0.47331225  0.53421147  0.19364587    -0.15300
H493        H  0.48185630  0.57966167  0.13507246     0.10900
H494        H  0.60585256  0.55563139  0.22181524     0.10900
H495        H  0.55950817  0.50358866  0.27210341     0.10900
H496        H  0.43654074  0.52749602  0.18490549     0.10900
C497        C  0.80431614  0.26533042  0.32846964    -0.15300
C498        C  0.81218105  0.31214121  0.31432423     0.06900
C499        C  0.78512150  0.33210295  0.27822879    -0.15300
C500        C  0.75306411  0.30428268  0.25354255    -0.15300
C501        C  0.74758460  0.25629780  0.26497588     0.06900
C502        C  0.77186711  0.23723887  0.30369197    -0.15300
H503        H  0.82501726  0.24984447  0.35653176     0.10900
H504        H  0.79049648  0.36866024  0.26774225     0.10900
H505        H  0.73366239  0.31999101  0.22458031     0.10900
H506        H  0.76740509  0.20033300  0.31325933     0.10900
C507        C  0.99928031  0.41617293  0.29302529    -0.15300
C508        C  0.94945506  0.41704483  0.29071783     0.06900
C509        C  0.92722232  0.44174217  0.25395281    -0.15300
C510        C  0.95380798  0.46655407  0.22141949    -0.15300
C511        C  0.00304505  0.46816741  0.22600830     0.06900
C512        C  0.02584780  0.44182787  0.26084949    -0.15300
H513        H  0.01849774  0.39786874  0.32016695     0.10900
H514        H  0.88893749  0.44296024  0.25134596     0.10900
H515        H  0.93555534  0.48730139  0.19499814     0.10900
H516        H  0.06403077  0.44314384  0.26471305     0.10900
C517        C  0.91419754  0.26596219  0.43454720    -0.15300
C518        C  0.92651389  0.31417064  0.43321002     0.06900
C519        C  0.96172905  0.33239648  0.46290646    -0.15300
C520        C  0.98712619  0.30208613  0.49125954    -0.15300
C521        C  0.97722591  0.25323624  0.49059260     0.06900
C522        C  0.93956068  0.23532402  0.46353504    -0.15300
H523        H  0.88739764  0.25163390  0.41109512     0.10900
H524        H  0.97135726  0.36969484  0.46200534     0.10900
H525        H  0.01538963  0.31685696  0.51276967     0.10900
H526        H  0.93137603  0.19769467  0.46311812     0.10900
C527        C  0.82946891  0.48338016  0.42488618    -0.15300
C528        C  0.81974120  0.43619313  0.41126826     0.06900
C529        C  0.77648732  0.41555214  0.42479951    -0.15300
C530        C  0.74450519  0.44096344  0.45307842    -0.15300
C531        C  0.75516003  0.48749635  0.46776134     0.06900
C532        C  0.79727730  0.50889694  0.45248633    -0.15300
H533        H  0.86258958  0.50031438  0.41567819     0.10900
H534        H  0.76715141  0.37982054  0.41372425     0.10900
H535        H  0.71212823  0.42380238  0.46442815     0.10900
H536        H  0.80629213  0.54484263  0.46336275     0.10900
C537        C  0.25485049  0.80839229  0.32467193    -0.15300
C538        C  0.29488760  0.83001039  0.30538124     0.06900
C539        C  0.30158291  0.83144460  0.25630508    -0.15300
C540        C  0.27123626  0.80594707  0.22675068    -0.15300
C541        C  0.23402276  0.77971964  0.24649748     0.06900
C542        C  0.22390683  0.78383589  0.29511790    -0.15300
H543        H  0.24958110  0.80757769  0.36271954     0.10900
H544        H  0.33262540  0.84837898  0.24139289     0.10900
H545        H  0.27911405  0.80355140  0.18918965     0.10900
H546        H  0.19505022  0.76418811  0.31096944     0.10900
C547        C  0.47277509  0.93317659  0.22107677    -0.15300
C548        C  0.47360002  0.98234546  0.23031682     0.06900
C549        C  0.44569154  0.00171023  0.26693108    -0.15300
C550        C  0.42007117  0.97171385  0.29631580    -0.15300
C551        C  0.42318299  0.92239015  0.28969873     0.06900
C552        C  0.44817624  0.90321245  0.25116298    -0.15300
H553        H  0.49393263  0.91750591  0.19285220     0.10900
H554        H  0.44574223  0.03960190  0.27434526     0.10900
H555        H  0.40044061  0.98670851  0.32600220     0.10900
H556        H  0.45005731  0.86507046  0.24552859     0.10900
C557        C  0.34010469  0.97665139  0.44121469    -0.15300
C558        C  0.32182958  0.93707169  0.41720611     0.06900
C559        C  0.27306135  0.92803122  0.41719893    -0.15300
C560        C  0.24275037  0.95704213  0.44361896    -0.15300
C561        C  0.26106749  0.99580552  0.46927866     0.06900
C562        C  0.30968426  0.00636115  0.46676655    -0.15300
H563        H  0.37782146  0.98382259  0.44098217     0.10900
H564        H  0.25883344  0.89737412  0.39845807     0.10900
H565        H  0.20536971  0.94844237  0.44512831     0.10900
H566        H  0.32453961  0.03606672  0.48649196     0.10900
C567        C  0.47278389  0.81785462  0.43790815    -0.15300
C568        C  0.43226769  0.79890416  0.41580099     0.06900
C569        C  0.42049722  0.75089355  0.42355026    -0.15300
C570        C  0.44806224  0.72317377  0.45337304    -0.15300
C571        C  0.48785383  0.74272543  0.47578045     0.06900
C572        C  0.50048224  0.79000854  0.46726315    -0.15300
H573        H  0.48245549  0.85477254  0.43314345     0.10900
H574        H  0.38945790  0.73444742  0.40848599     0.10900
H575        H  0.43761716  0.68673460  0.45972063     0.10900
H576        H  0.53089411  0.80603552  0.48449640     0.10900
C577        C  0.26653733  0.32933214  0.80077714    -0.15300
C578        C  0.31357055  0.31526390  0.80748961     0.06900
C579        C  0.33329663  0.27861442  0.77995123    -0.15300
C580        C  0.30526928  0.25333367  0.74862162    -0.15300
C581        C  0.25722722  0.26470136  0.74414578     0.06900
C582        C  0.23819586  0.30395768  0.76887519    -0.15300
H583        H  0.25121427  0.35780360  0.82195248     0.10900
H584        H  0.36995877  0.26810317  0.78445154     0.10900
H585        H  0.32101529  0.22399356  0.72893832     0.10900
H586        H  0.20125343  0.31359551  0.76507711     0.10900
C587        C  0.33967530  0.46517905  0.95923902    -0.15300
C588        C  0.31969889  0.43656158  0.92368490     0.06900
C589        C  0.27226892  0.44204990  0.91072646    -0.15300
C590        C  0.24382350  0.47384787  0.93602740    -0.15300
C591        C  0.26310199  0.49973282  0.97415627     0.06900
C592        C  0.31141353  0.49652254  0.98458376    -0.15300
H593        H  0.37661441  0.46140814  0.96892938     0.10900
H594        H  0.25671276  0.41978905  0.88333790     0.10900
H595        H  0.20657667  0.47660260  0.92730024     0.10900
H596        H  0.32711132  0.51726570  0.01309510     0.10900
C597        C  0.44612047  0.25848846  0.01560753    -0.15300
C598        C  0.47749582  0.22834962  0.99137376     0.06900
C599        C  0.47777205  0.22612386  0.94193268    -0.15300
C600        C  0.45010341  0.25741326  0.91677760    -0.15300
C601        C  0.42164749  0.29102784  0.94073805     0.06900
C602        C  0.41787917  0.28953149  0.99042289    -0.15300
H603        H  0.44524522  0.25968911  0.05401820     0.10900
H604        H  0.50196666  0.20291943  0.92274029     0.10900
H605        H  0.45256935  0.25701758  0.87842205     0.10900
H606        H  0.39479028  0.31268605  0.01054378     0.10900
C607        C  0.41853724  0.45866113  0.80084809    -0.15300
C608        C  0.43635810  0.41447287  0.81505859     0.06900
C609        C  0.48003917  0.39854078  0.79685573    -0.15300
C610        C  0.50573508  0.42653771  0.76567255    -0.15300
C611        C  0.48799431  0.47071913  0.75168201     0.06900
C612        C  0.44409671  0.48649844  0.76923709    -0.15300
H613        H  0.38537646  0.47229979  0.81473577     0.10900
H614        H  0.49424715  0.36415529  0.80614062     0.10900
H615        H  0.53929148  0.41335472  0.75219429     0.10900
H616        H  0.42958048  0.52040500  0.75869197     0.10900
C617        C  0.20019772  0.77063163  0.70219235    -0.15300
C618        C  0.21081286  0.75995561  0.74921058     0.06900
C619        C  0.19100373  0.71976941  0.77030406    -0.15300
C620        C  0.16560442  0.68734938  0.74301234    -0.15300
C621        C  0.15948179  0.69510126  0.69423394     0.06900
C622        C  0.17535801  0.73805567  0.67472047    -0.15300
H623        H  0.21482637  0.80179704  0.68537338     0.10900
H624        H  0.19852309  0.71128837  0.80688889     0.10900
H625        H  0.15425642  0.65529550  0.76014516     0.10900
H626        H  0.17083591  0.74518029  0.63734681     0.10900
C627        C  0.24633256  0.00542671  0.04883707    -0.15300
C628        C  0.25236677  0.01800540  0.00131605     0.06900
C629        C  0.22703864  0.05659503  0.98291877    -0.15300
C630        C  0.19328712  0.07999048  0.01113296    -0.15300
C631        C  0.18513780  0.06465071  0.05748612     0.06900
C632        C  0.21301134  0.02862080  0.07669814    -0.15300
H633        H  0.26630470  0.97657072  0.06418408     0.10900
H634        H  0.23175638  0.06710517  0.94640829     0.10900
H635        H  0.17190945  0.10796561  0.99611528     0.10900
H636        H  0.20749904  0.01707667  0.11281387     0.10900
C637        C  0.55010315  0.75931814  0.01384115    -0.15300
C638        C  0.52440398  0.73967914  0.97591939     0.06900
C639        C  0.52894793  0.69113950  0.96451199    -0.15300
C640        C  0.55405087  0.66150103  0.99440652    -0.15300
C641        C  0.57566404  0.68063781  0.03481533     0.06900
C642        C  0.57604705  0.72973686  0.04314191    -0.15300
H643        H  0.54732568  0.79677849  0.02284640     0.10900
H644        H  0.50968397  0.67536144  0.93512068     0.10900
H645        H  0.55388165  0.62343586  0.98793527     0.10900
H646        H  0.59279377  0.74452429  0.07455784     0.10900
C647        C  0.55557444  0.02074328  0.74516148    -0.15300
C648        C  0.52699485  0.98459032  0.72601362     0.06900
C649        C  0.52565740  0.97679834  0.67681899    -0.15300
C650        C  0.54856918  0.00808162  0.64687512    -0.15300
C651        C  0.57381783  0.04649220  0.66604599     0.06900
C652        C  0.57945844  0.05142067  0.71508588    -0.15300
H653        H  0.55706207  0.02700548  0.78309859     0.10900
H654        H  0.50378867  0.94906268  0.66133183     0.10900
H655        H  0.54464972  0.00381802  0.60885019     0.10900
H656        H  0.59919229  0.08105134  0.73000317     0.10900
C657        C  0.64870614  0.20246840  0.71719170    -0.15300
C658        C  0.66644110  0.18241687  0.67518237     0.06900
C659        C  0.71461598  0.18578916  0.66414093    -0.15300
C660        C  0.74498229  0.21046922  0.69431681    -0.15300
C661        C  0.72747670  0.23148166  0.73617968     0.06900
C662        C  0.67924434  0.22675444  0.74784757    -0.15300
H663        H  0.61147017  0.19937296  0.72606092     0.10900
H664        H  0.72847779  0.17002462  0.63172482     0.10900
H665        H  0.78195924  0.21376349  0.68452411     0.10900
H666        H  0.66494293  0.24289613  0.77987376     0.10900
C667        C  0.00583527  0.24296702  0.05373952    -0.15300
C668        C  0.01426594  0.24502253  0.00486451     0.06900
C669        C  0.05045159  0.21734445  0.98423147    -0.15300
C670        C  0.07584021  0.18548874  0.01191065    -0.15300
C671        C  0.06515820  0.18160618  0.06013081     0.06900
C672        C  0.03119287  0.21140114  0.08123189    -0.15300
H673        H  0.97878293  0.26479408  0.07049434     0.10900
H674        H  0.05759381  0.21881800  0.94653556     0.10900
H675        H  0.10164605  0.16210040  0.99531777     0.10900
H676        H  0.02287009  0.20858960  0.11862470     0.10900
C677        C  0.70192501  0.53785744  0.98151389    -0.15300
C678        C  0.74232005  0.51577832  0.99983221     0.06900
C679        C  0.75348714  0.52120764  0.04814089    -0.15300
C680        C  0.72333664  0.54658096  0.07822351    -0.15300
C681        C  0.68255848  0.56746146  0.05992267     0.06900
C682        C  0.67232459  0.56402792  0.01148940    -0.15300
H683        H  0.69270118  0.53392899  0.94442097     0.10900
H684        H  0.78435564  0.50416426  0.06307841     0.10900
H685        H  0.73132724  0.54937107  0.11570522     0.10900
H686        H  0.64063995  0.58026021  0.99730997     0.10900
C687        C  0.99305458  0.51208277  0.67789159    -0.15300
C688        C  0.01016515  0.48740646  0.71712390     0.06900
C689        C  0.05887639  0.48641127  0.72667109    -0.15300
C690        C  0.08972428  0.51336502  0.70002208    -0.15300
C691        C  0.07204390  0.54197860  0.66402207     0.06900
C692        C  0.02416603  0.53949481  0.65124696    -0.15300
H693        H  0.95557569  0.51245130  0.66972631     0.10900
H694        H  0.07298014  0.46635346  0.75598436     0.10900
H695        H  0.12676348  0.51501239  0.70996785     0.10900
H696        H  0.01023963  0.56178968  0.62359117     0.10900
C697        C  0.68620969  0.76499053  0.21027887    -0.15300
C698        C  0.73271866  0.74960088  0.21888409     0.06900
C699        C  0.75048497  0.70943337  0.19475885    -0.15300
C700        C  0.72078540  0.68276812  0.16538058    -0.15300
C701        C  0.67322012  0.69586280  0.16066151     0.06900
C702        C  0.65637056  0.73782582  0.18168725    -0.15300
H703        H  0.67183463  0.79607259  0.22824958     0.10900
H704        H  0.78634063  0.69717082  0.20069965     0.10900
H705        H  0.73384535  0.65008736  0.14929561     0.10900
H706        H  0.61954264  0.74803138  0.17804415     0.10900
C707        C  0.97351517  0.03199554  0.21133023    -0.15300
C708        C  0.98685703  0.98540317  0.22168469     0.06900
C709        C  0.02732647  0.96547779  0.20072468    -0.15300
C710        C  0.05571177  0.99284271  0.17151818    -0.15300
C711        C  0.04341274  0.04032666  0.16216184     0.06900
C712        C  0.00206181  0.05951204  0.18269303    -0.15300
H713        H  0.94274623  0.04831058  0.22783478     0.10900
H714        H  0.03851423  0.92968403  0.20902634     0.10900
H715        H  0.08851400  0.97729045  0.15910723     0.10900
H716        H  0.99277064  0.09656138  0.17845467     0.10900
C717        C  0.07623616  0.69794043  0.52822495    -0.15300
C718        C  0.05507534  0.66511307  0.55841904     0.06900
C719        C  0.00627781  0.65677397  0.55670206    -0.15300
C720        C  0.97824741  0.68333797  0.52620511    -0.15300
C721        C  0.99917414  0.71870745  0.49844337     0.06900
C722        C  0.04838319  0.72490996  0.49858196    -0.15300
H723        H  0.11403777  0.70461156  0.52975809     0.10900
H724        H  0.98971080  0.63199212  0.58063829     0.10900
H725        H  0.94024243  0.67797853  0.52600386     0.10900
H726        H  0.06522727  0.75135478  0.47660592     0.10900
C727        C  0.76582336  0.03885745  0.53914984    -0.15300
C728        C  0.74761420  0.99402664  0.52614027     0.06900
C729        C  0.70155184  0.98132373  0.53956225    -0.15300
C730        C  0.67234133  0.01487673  0.56114522    -0.15300
C731        C  0.68923402  0.06092107  0.56956197     0.06900
C732        C  0.73639952  0.07250537  0.56055561    -0.15300
H733        H  0.80148713  0.04918582  0.52944664     0.10900
H734        H  0.68693677  0.94689213  0.53010158     0.10900
H735        H  0.63575094  0.00591116  0.56859964     0.10900
H736        H  0.74951390  0.10809654  0.56754007     0.10900
C737        C  0.83062888  0.98486404  0.92600235    -0.15300
C738        C  0.83291767  0.93586198  0.93278075     0.06900
C739        C  0.81546257  0.91574494  0.97442857    -0.15300
C740        C  0.79194873  0.94407277  0.00757462    -0.15300
C741        C  0.78527308  0.99255646  0.99875477     0.06900
C742        C  0.80674739  0.01328809  0.95902554    -0.15300
H743        H  0.84425657  0.00045229  0.89380082     0.10900
H744        H  0.81740127  0.87769446  0.97972180     0.10900
H745        H  0.77573969  0.92733450  0.03794562     0.10900
H746        H  0.80219185  0.05074669  0.95179710     0.10900
C747        C  0.96585372  0.89995620  0.76889251    -0.15300
C748        C  0.93914819  0.91964625  0.80617289     0.06900
C749        C  0.94478013  0.96765833  0.81891406    -0.15300
C750        C  0.97512076  0.99642813  0.79293330    -0.15300
C751        C  0.00110332  0.97691042  0.75512882     0.06900
C752        C  0.99717128  0.92840491  0.74379698    -0.15300
H753        H  0.96212619  0.86279903  0.75899847     0.10900
H754        H  0.92425700  0.98331603  0.84761053     0.10900
H755        H  0.97771202  0.03395547  0.80170536     0.10900
H756        H  0.01657783  0.91308201  0.71413745     0.10900
C757        C  0.82704065  0.76261751  0.79179882    -0.15300
C758        C  0.80672899  0.80156187  0.81614294     0.06900
C759        C  0.75741280  0.80879563  0.81295701    -0.15300
C760        C  0.72961397  0.77857215  0.78535467    -0.15300
C761        C  0.75034706  0.74065227  0.76043625     0.06900
C762        C  0.79908460  0.73220953  0.76450938    -0.15300
H763        H  0.86490970  0.75643180  0.79307891     0.10900
H764        H  0.73967728  0.83846511  0.82969707     0.10900
H765        H  0.69202343  0.78574318  0.78237853     0.10900
H766        H  0.81595344  0.70336053  0.74504907     0.10900
C767        C  0.91875769  0.80908341  0.97912066    -0.15300
C768        C  0.93589266  0.82455765  0.93547993     0.06900
C769        C  0.98421414  0.82218295  0.92483089    -0.15300
C770        C  0.01478290  0.79955889  0.95589803    -0.15300
C771        C  0.99687440  0.77978040  0.99772598     0.06900
C772        C  0.94936539  0.78730908  0.01058114    -0.15300
H773        H  0.88140735  0.81177220  0.98771188     0.10900
H774        H  0.99754153  0.83486849  0.89121839     0.10900
H775        H  0.05146015  0.79449425  0.94560610     0.10900
H776        H  0.93492640  0.77282322  0.04294547     0.10900
loop_ 
_geom_bond_atom_site_label_1 
_geom_bond_atom_site_label_2 
_geom_bond_distance 
_geom_bond_site_symmetry_2 
_ccdc_geom_bond_type 
C1            C2   1.535       .  S
C1            C7   1.535       .  S
C1            C5   1.539       .  S
C1          C758   1.512       .  S
C2            H9   1.087       .  S
C2            C3   1.363       .  D
C3            C4   1.521       .  S
C3          C768   1.449       .  S
C4            C8   1.526       .  S
C4            C6   1.519       .  S
C4           H10   1.112       .  S
C5           H11   1.082       .  S
C5            C6   1.360       .  D
C6          C738   1.452       .  S
C7           H12   1.086       .  S
C7            C8   1.364       .  D
C8          C748   1.462       .  S
N13          N14   1.317       .  A
N13          N19   1.316       .  A
N13         Mn42   2.198       .  S
N14          C21   1.354       .  A
N15          N17   1.317       .  A
N15          N16   1.334       .  A
N15         Mn31   2.271       .  S
N16          C22   1.364       .  A
N17          N18   1.331       .  A
N17         Mn42   2.247       .  S
N18          C22   1.359       .  A
N19          N20   1.313       .  A
N19         Mn31   2.166       .  S
N20          C21   1.347       .  A
C21         C728   1.457       .  S
C22         C294   1.520   1_565  S
N23          N29   1.317       .  A
N23          N24   1.315       .  A
N23         Mn53   2.182       .  S
N24          C32   1.350       .  A
N25          N26   1.332       .  A
N25          N27   1.319       .  A
N25         Mn31   2.261       .  S
N26          C33   1.361       .  A
N27          N28   1.335       .  A
N27         Mn53   2.270       .  S
N28          C33   1.364       .  A
N29          N30   1.313       .  A
N29         Mn31   2.171       .  S
N30          C32   1.349       .  A
Mn31        Cl55   2.561       .  S
C32         C708   1.452       .  S
C33         C203   1.526   1_665  S
N34          N35   1.315       .  A
N34          N40   1.317       .  A
N34         Mn42   2.182       .  S
N35          C43   1.349       .  A
N36          N38   1.318       .  A
N36          N37   1.331       .  A
N36         Mn54   2.257       .  S
N37          C44   1.360       .  A
N38          N39   1.331       .  A
N38         Mn42   2.248       .  S
N39          C44   1.360       .  A
N40          N41   1.318       .  A
N40         Mn54   2.197       .  S
N41          C43   1.353       .  A
Mn42        Cl55   2.559       .  S
C43         C698   1.463       .  S
C44         C407   1.514       .  S
N45          N46   1.314       .  A
N45          N51   1.319       .  A
N45         Mn53   2.186       .  S
N46          C56   1.350       .  A
N47          N48   1.332       .  A
N47          N49   1.319       .  A
N47         Mn54   2.259       .  S
N48          C57   1.362       .  A
N49          N50   1.330       .  A
N49         Mn53   2.247       .  S
N50          C57   1.358       .  A
N51          N52   1.317       .  A
N51         Mn54   2.188       .  S
N52          C56   1.348       .  A
Mn53        Cl55   2.562       .  S
Mn54        Cl55   2.558       .  S
C56         C721   1.453       .  S
C57         C237   1.512   1_655  S
N58          N59   1.337       .  A
N58          N64   1.320       .  A
N58         Mn87   2.277       .  S
N59          C66   1.365       .  A
N60          N62   1.318       .  A
N60          N61   1.316       .  A
N60         Mn76   2.192       .  S
N61          C67   1.351       .  A
N62          N63   1.317       .  A
N62         Mn87   2.180       .  S
N63          C67   1.348       .  A
N64          N65   1.333       .  A
N64         Mn76   2.280       .  S
N65          C66   1.364       .  A
C66         C248   1.535   1_655  S
C67         C668   1.459   1_656  S
N68          N74   1.321       .  A
N68          N69   1.332       .  A
N68         Mn98   2.264       .  S
N69          C77   1.360       .  A
N70          N71   1.314       .  A
N70          N72   1.317       .  A
N70         Mn76   2.175       .  S
N71          C78   1.347       .  A
N72          N73   1.318       .  A
N72         Mn98   2.199       .  S
N73          C78   1.353       .  A
N74          N75   1.336       .  A
N74         Mn76   2.290       .  S
N75          C77   1.366       .  A
Mn76       Cl100   2.564       .  S
C77         C305   1.529   1_556  S
C78         C678   1.460       .  S
N79          N80   1.331       .  A
N79          N85   1.320       .  A
N79         Mn87   2.267       .  S
N80          C88   1.362       .  A
N81          N83   1.317       .  A
N81          N82   1.319       .  A
N81         Mn99   2.187       .  S
N82          C89   1.350       .  A
N83          N84   1.310       .  A
N83         Mn87   2.167       .  S
N84          C89   1.346       .  A
N85          N86   1.330       .  A
N85         Mn99   2.243       .  S
N86          C88   1.358       .  A
Mn87       Cl100   2.564       .  S
C88         C227   1.510   1_655  S
C89         C688   1.453   1_655  S
N90          N91   1.333       .  A
N90          N96   1.319       .  A
N90         Mn98   2.269       .  S
N91         C101   1.363       .  A
N92          N93   1.317       .  A
N92          N94   1.317       .  A
N92         Mn99   2.195       .  S
N93         C102   1.351       .  A
N94          N95   1.318       .  A
N94         Mn98   2.186       .  S
N95         C102   1.351       .  A
N96          N97   1.329       .  A
N96         Mn99   2.241       .  S
N97         C101   1.357       .  A
Mn98       Cl100   2.567       .  S
Mn99       Cl100   2.556       .  S
C101        C431   1.511       .  S
C102        C661   1.465       .  S
N103        N104   1.314       .  A
N103        N109   1.316       .  A
N103       Mn132   2.172       .  S
N104        C111   1.348       .  A
N105        N107   1.318       .  A
N105        N106   1.336       .  A
N105       Mn121   2.282       .  S
N106        C112   1.366       .  A
N107        N108   1.329       .  A
N107       Mn132   2.235       .  S
N108        C112   1.356       .  A
N109        N110   1.317       .  A
N109       Mn121   2.193       .  S
N110        C111   1.353       .  A
C111        C638   1.457       .  S
C112        C272   1.520   1_556  S
N113        N119   1.322       .  A
N113        N114   1.320   1_565  A
N113       Mn143   2.200       .  S
N114        C122   1.351   1_545  A
N115        N116   1.332       .  A
N115        N117   1.320       .  A
N115       Mn121   2.256       .  S
N116        C123   1.360       .  A
N117        N118   1.335       .  A
N117       Mn143   2.284       .  S
N118        C123   1.365       .  A
N119        N120   1.313       .  A
N119       Mn121   2.197       .  S
N120        C122   1.349       .  A
Mn121      Cl145   2.559       .  S
C122        C628   1.460   1_566  S
C123        C283   1.528   1_566  S
N124        N125   1.312       .  A
N124        N130   1.314       .  A
N124       Mn132   2.163       .  S
N125        C133   1.348       .  A
N126        N128   1.315       .  A
N126        N127   1.330       .  A
N126       Mn144   2.247       .  S
N127        C134   1.359       .  A
N128        N129   1.331       .  A
N128       Mn132   2.244       .  S
N129        C134   1.360       .  A
N130        N131   1.315       .  A
N130       Mn144   2.181       .  S
N131        C133   1.352       .  A
Mn132      Cl145   2.563       .  S
C133        C618   1.452       .  S
C134        C396   1.509       .  S
N135        N136   1.317       .  A
N135        N141   1.317       .  A
N135       Mn143   2.192       .  S
N136        C146   1.352       .  A
N137        N138   1.330       .  A
N137        N139   1.319       .  A
N137       Mn144   2.237       .  S
N138        C147   1.356       .  A
N139        N140   1.338   1_565  A
N139       Mn143   2.303       .  S
N140        C147   1.370   1_545  A
N141        N142   1.314       .  A
N141       Mn144   2.177       .  S
N142        C146   1.349       .  A
Mn143      Cl145   2.574       .  S
Mn144      Cl145   2.551       .  S
C146        C648   1.455       .  S
C147        C192   1.528   1_565  S
C148        C149   1.535       .  S
C148        C154   1.519       .  S
C148        C152   1.526       .  S
C148        C601   1.496       .  S
C149        H156   1.086       .  S
C149        C150   1.367       .  D
C150        C151   1.538       .  S
C150        C608   1.477       .  S
C151        C155   1.525       .  S
C151        C153   1.527       .  S
C151        H157   1.110       .  S
C152        H158   1.082       .  S
C152        C153   1.360       .  D
C153        C588   1.447       .  S
C154        H159   1.088       .  S
C154        C155   1.356       .  D
C155        C578   1.451       .  S
C160        C161   1.537       .  S
C160        C166   1.536       .  S
C160        C164   1.540       .  S
C160        C568   1.513       .  S
C161        H168   1.087       .  S
C161        C162   1.362       .  D
C162        C163   1.520       .  S
C162        C558   1.452       .  S
C163        C167   1.522       .  S
C163        C165   1.517       .  S
C163        H169   1.112       .  S
C164        H170   1.082       .  S
C164        C165   1.362       .  D
C165        C538   1.448       .  S
C166        H171   1.087       .  S
C166        C167   1.363       .  D
C167        C551   1.455       .  S
C172        C173   1.534       .  S
C172        C178   1.523       .  S
C172        C176   1.526       .  S
C172        C508   1.498       .  S
C173        H180   1.085       .  S
C173        C174   1.368       .  D
C174        C175   1.539       .  S
C174        C528   1.477       .  S
C175        C179   1.524       .  S
C175        C177   1.526       .  S
C175        H181   1.109       .  S
C176        H182   1.081       .  S
C176        C177   1.358       .  D
C177        C518   1.449       .  S
C178        H183   1.087       .  S
C178        C179   1.357       .  D
C179        C498   1.450       .  S
N184        N185   1.334       .  A
N184        N190   1.320       .  A
N184       Mn213   2.266       .  S
N185        C192   1.362       .  A
N186        N188   1.317       .  A
N186        N187   1.318       .  A
N186       Mn202   2.196       .  S
N187        C193   1.353       .  A
N188        N189   1.315       .  A
N188       Mn213   2.182       .  S
N189        C193   1.348       .  A
N190        N191   1.334   1_545  A
N190       Mn202   2.283       .  S
N191        C192   1.365   1_565  A
C193        C561   1.460   1_545  S
N194        N200   1.321       .  A
N194        N195   1.332   1_455  A
N194       Mn224   2.263       .  S
N195        C203   1.361   1_655  A
N196        N197   1.316   1_545  A
N196        N198   1.319       .  A
N196       Mn202   2.191       .  S
N197        C204   1.349   1_565  A
N198        N199   1.317       .  A
N198       Mn224   2.194       .  S
N199        C204   1.350       .  A
N200        N201   1.335   1_545  A
N200       Mn202   2.278       .  S
N201        C203   1.365   1_565  A
Mn202      Cl226   2.566       .  S
C204        C751   1.454   1_545  S
N205        N206   1.332       .  A
N205        N211   1.318       .  A
N205       Mn213   2.265       .  S
N206        C214   1.363       .  A
N207        N209   1.315       .  A
N207        N208   1.317       .  A
N207       Mn225   2.172       .  S
N208        C215   1.349       .  A
N209        N210   1.311       .  A
N209       Mn213   2.173       .  S
N210        C215   1.348       .  A
N211        N212   1.332       .  A
N211       Mn225   2.250       .  S
N212        C214   1.360       .  A
Mn213      Cl226   2.559       .  S
C214        C351   1.517       .  S
C215        C581   1.453       .  S
N216        N217   1.333   1_455  A
N216        N222   1.319       .  A
N216       Mn224   2.266       .  S
N217        C227   1.363   1_655  A
N218        N219   1.308       .  A
N218        N220   1.316       .  A
N218       Mn225   2.163       .  S
N219        C228   1.344       .  A
N220        N221   1.320   1_455  A
N220       Mn224   2.183       .  S
N221        C228   1.352   1_655  A
N222        N223   1.328       .  A
N222       Mn225   2.240       .  S
N223        C227   1.356       .  A
Mn224      Cl226   2.568       .  S
Mn225      Cl226   2.547       .  S
C228        C521   1.450   1_455  S
N229        N230   1.330       .  A
N229        N235   1.317       .  A
N229       Mn258   2.245       .  S
N230        C237   1.359       .  A
N231        N233   1.316       .  A
N231        N232   1.312       .  A
N231       Mn247   2.165       .  S
N232        C238   1.348       .  A
N233        N234   1.312       .  A
N233       Mn258   2.170       .  S
N234        C238   1.349       .  A
N235        N236   1.332   1_455  A
N235       Mn247   2.251       .  S
N236        C237   1.360   1_655  A
C238        C511   1.443       .  S
N239        N245   1.317       .  A
N239        N240   1.339   1_554  A
N239       Mn269   2.293       .  S
N240        C248   1.370       .  A
N241        N242   1.315       .  A
N241        N243   1.317       .  A
N241       Mn247   2.182       .  S
N242        C249   1.351       .  A
N243        N244   1.316       .  A
N243       Mn269   2.189       .  S
N244        C249   1.351       .  A
N245        N246   1.331       .  A
N245       Mn247   2.250       .  S
N246        C248   1.359   1_554  A
Mn247      Cl271   2.560       .  S
C249        C771   1.458   1_454  S
N250        N251   1.330       .  A
N250        N256   1.317       .  A
N250       Mn258   2.241       .  S
N251        C259   1.358       .  A
N252        N254   1.316       .  A
N252        N253   1.317       .  A
N252       Mn270   2.195       .  S
N253        C260   1.353       .  A
N254        N255   1.314       .  A
N254       Mn258   2.169       .  S
N255        C260   1.348       .  A
N256        N257   1.337       .  A
N256       Mn270   2.282       .  S
N257        C259   1.367       .  A
Mn258      Cl271   2.555       .  S
C259        C373   1.525       .  S
C260        C541   1.456       .  S
N261        N262   1.332   1_554  A
N261        N267   1.320       .  A
N261       Mn269   2.272       .  S
N262        C272   1.363   1_556  A
N263        N264   1.312       .  A
N263        N265   1.320       .  A
N263       Mn270   2.188       .  S
N264        C273   1.349       .  A
N265        N266   1.314   1_554  A
N265       Mn269   2.172       .  S
N266        C273   1.347   1_556  A
N267        N268   1.333       .  A
N267       Mn270   2.257       .  S
N268        C272   1.360       .  A
Mn269      Cl271   2.564       .  S
Mn270      Cl271   2.557       .  S
C273        C591   1.447   1_554  S
N274        N275   1.315       .  A
N274        N280   1.318       .  A
N274       Mn303   2.184       .  S
N275        C282   1.349       .  A
N276        N278   1.317       .  A
N276        N277   1.334   1_545  A
N276       Mn292   2.268       .  S
N277        C283   1.364   1_565  A
N278        N279   1.334   1_554  A
N278       Mn303   2.263       .  S
N279        C283   1.362   1_556  A
N280        N281   1.317       .  A
N280       Mn292   2.199       .  S
N281        C282   1.353       .  A
C282        C741   1.461   1_544  S
N284        N290   1.317       .  A
N284        N285   1.318       .  A
N284       Mn314   2.198       .  S
N285        C293   1.353       .  A
N286        N287   1.333   1_545  A
N286        N288   1.320       .  A
N286       Mn292   2.267       .  S
N287        C294   1.363   1_565  A
N288        N289   1.332       .  A
N288       Mn314   2.263       .  S
N289        C294   1.360       .  A
N290        N291   1.314   1_545  A
N290       Mn292   2.179       .  S
N291        C293   1.349   1_565  A
Mn292      Cl316   2.563       .  S
C293        C548   1.458   1_545  S
N295        N296   1.313   1_554  A
N295        N301   1.315       .  A
N295       Mn303   2.160       .  S
N296        C304   1.347   1_556  A
N297        N299   1.319       .  A
N297        N298   1.335       .  A
N297       Mn315   2.275       .  S
N298        C305   1.364       .  A
N299        N300   1.334   1_554  A
N299       Mn303   2.267       .  S
N300        C305   1.363   1_556  A
N301        N302   1.312       .  A
N301       Mn315   2.169       .  S
N302        C304   1.348       .  A
Mn303      Cl316   2.568       .  S
C304        C598   1.441   1_554  S
N306        N307   1.317       .  A
N306        N312   1.318       .  A
N306       Mn314   2.184       .  S
N307        C317   1.349       .  A
N308        N309   1.332       .  A
N308        N310   1.318       .  A
N308       Mn315   2.255       .  S
N309        C318   1.360       .  A
N310        N311   1.333       .  A
N310       Mn314   2.266       .  S
N311        C318   1.364       .  A
N312        N313   1.312       .  A
N312       Mn315   2.183       .  S
N313        C317   1.349       .  A
Mn314      Cl316   2.566       .  S
Mn315      Cl316   2.550       .  S
C317        C501   1.452       .  S
C318        C386   1.521       .  S
C319        C320   1.533       .  S
C319        C325   1.536       .  S
C319        C323   1.540       .  S
C319        C488   1.511       .  S
C320        H327   1.087       .  S
C320        C321   1.361       .  D
C321        C322   1.524       .  S
C321        C701   1.454       .  S
C322        C326   1.522       .  S
C322        C324   1.521       .  S
C322        H328   1.112       .  S
C323        H329   1.082       .  S
C323        C324   1.364       .  D
C324        C641   1.449       .  S
C325        H330   1.087       .  S
C325        C326   1.360       .  D
C326        C681   1.452       .  S
C331        C332   1.529       .  S
C331        C337   1.524       .  S
C331        C335   1.538       .  S
C331        C621   1.504       .  S
C332        H339   1.082       .  S
C332        C333   1.362       .  D
C333        C334   1.528       .  S
C333        C691   1.453       .  S
C334        C338   1.525       .  S
C334        C336   1.536       .  S
C334        H340   1.111       .  S
C335        H341   1.086       .  S
C335        C336   1.367       .  D
C336        C478   1.474       .  S
C337        H342   1.087       .  S
C337        C338   1.356       .  D
C338        C718   1.448       .  S
N343        N344   1.335       .  A
N343        N349   1.318       .  A
N343       Mn372   2.281       .  S
N344        C351   1.366       .  A
N345        N347   1.317       .  A
N345        N346   1.316       .  A
N345       Mn361   2.187       .  S
N346        C352   1.349       .  A
N347        N348   1.321       .  A
N347       Mn372   2.214       .  S
N348        C352   1.356       .  A
N349        N350   1.329       .  A
N349       Mn361   2.235       .  S
N350        C351   1.356       .  A
C352        C481   1.472       .  S
N353        N359   1.318       .  A
N353        N354   1.331       .  A
N353       Mn383   2.252       .  S
N354        C362   1.361       .  A
N355        N356   1.316       .  A
N355        N357   1.315       .  A
N355       Mn361   2.181       .  S
N356        C363   1.351       .  A
N357        N358   1.313       .  A
N357       Mn383   2.172       .  S
N358        C363   1.349       .  A
N359        N360   1.327       .  A
N359       Mn361   2.233       .  S
N360        C362   1.355       .  A
Mn361      Cl385   2.552       .  S
C362        C418   1.503       .  S
C363        C468   1.453       .  S
N364        N365   1.332       .  A
N364        N370   1.321       .  A
N364       Mn372   2.271       .  S
N365        C373   1.363       .  A
N366        N368   1.321       .  A
N366        N367   1.319       .  A
N366       Mn384   2.207       .  S
N367        C374   1.353       .  A
N368        N369   1.318       .  A
N368       Mn372   2.208       .  S
N369        C374   1.352       .  A
N370        N371   1.334       .  A
N370       Mn384   2.268       .  S
N371        C373   1.362       .  A
Mn372      Cl385   2.572       .  S
C374        C458   1.471       .  S
N375        N376   1.329       .  A
N375        N381   1.319       .  A
N375       Mn383   2.239       .  S
N376        C386   1.356       .  A
N377        N378   1.316       .  A
N377        N379   1.318       .  A
N377       Mn384   2.186       .  S
N378        C387   1.349       .  A
N379        N380   1.317       .  A
N379       Mn383   2.197       .  S
N380        C387   1.352       .  A
N381        N382   1.336       .  A
N381       Mn384   2.287       .  S
N382        C386   1.367       .  A
Mn383      Cl385   2.564       .  S
Mn384      Cl385   2.567       .  S
C387        C491   1.462       .  S
N388        N389   1.331       .  A
N388        N394   1.320       .  A
N388       Mn417   2.256       .  S
N389        C396   1.360       .  A
N390        N392   1.317       .  A
N390        N391   1.315       .  A
N390       Mn406   2.182       .  S
N391        C397   1.350       .  A
N392        N393   1.318       .  A
N392       Mn417   2.196       .  S
N393        C397   1.352       .  A
N394        N395   1.330       .  A
N394       Mn406   2.250       .  S
N395        C396   1.359       .  A
C397        C571   1.463       .  S
N398        N404   1.318       .  A
N398        N399   1.330       .  A
N398       Mn428   2.251       .  S
N399        C407   1.360       .  A
N400        N401   1.317       .  A
N400        N402   1.317       .  A
N400       Mn406   2.197       .  S
N401        C408   1.352       .  A
N402        N403   1.315       .  A
N402       Mn428   2.178       .  S
N403        C408   1.348       .  A
N404        N405   1.331       .  A
N404       Mn406   2.255       .  S
N405        C407   1.361       .  A
Mn406      Cl430   2.562       .  S
C408        C761   1.460       .  S
N409        N410   1.328       .  A
N409        N415   1.319       .  A
N409       Mn417   2.247       .  S
N410        C418   1.358       .  A
N411        N413   1.317       .  A
N411        N412   1.317       .  A
N411       Mn429   2.196       .  S
N412        C419   1.351       .  A
N413        N414   1.318       .  A
N413       Mn417   2.191       .  S
N414        C419   1.351       .  A
N415        N416   1.330       .  A
N415       Mn429   2.245       .  S
N416        C418   1.359       .  A
Mn417      Cl430   2.559       .  S
C419        C611   1.466       .  S
N420        N421   1.331       .  A
N420        N426   1.318       .  A
N420       Mn428   2.259       .  S
N421        C431   1.361       .  A
N422        N423   1.320       .  A
N422        N424   1.316       .  A
N422       Mn429   2.200       .  S
N423        C432   1.354       .  A
N424        N425   1.313       .  A
N424       Mn428   2.171       .  S
N425        C432   1.348       .  A
N426        N427   1.330       .  A
N426       Mn429   2.250       .  S
N427        C431   1.359       .  A
Mn428      Cl430   2.559       .  S
Mn429      Cl430   2.559       .  S
C432        C531   1.463       .  S
C433        C434   1.530       .  S
C433        C439   1.542       .  S
C433        C437   1.538       .  S
C433        C471   1.505       .  S
C434        H441   1.087       .  S
C434        C435   1.359       .  D
C435        C436   1.522       .  S
C435        C651   1.452       .  S
C436        C440   1.518       .  S
C436        C438   1.522       .  S
C436        H442   1.112       .  S
C437        H443   1.086       .  S
C437        C438   1.361       .  D
C438        C658   1.454       .  S
C439        H444   1.082       .  S
C439        C440   1.362       .  D
C440        C731   1.446       .  S
C445        C446   1.529       .  S
C445        C451   1.526       .  S
C445        C449   1.532       .  S
C445        C711   1.502       .  S
C446        H453   1.084       .  S
C446        C447   1.361       .  D
C447        C448   1.530       .  S
C447        C631   1.458       .  S
C448        C452   1.532       .  S
C448        C450   1.539       .  S
C448        H454   1.110       .  S
C449        H455   1.086       .  S
C449        C450   1.365       .  D
C450        C461   1.476       .  S
C451        H456   1.087       .  S
C451        C452   1.358       .  D
C452        C671   1.456       .  S
C457        C458   1.404       .  A
C457        C462   1.396       .  A
C457        H463   1.083       .  S
C458        C459   1.403       .  A
C459        C460   1.393       .  A
C459        H464   1.083       .  S
C460        C461   1.404       .  A
C460        H465   1.083       .  S
C461        C462   1.403       .  A
C462        H466   1.083       .  S
C467        C468   1.399       .  A
C467        C472   1.388       .  A
C467        H473   1.084       .  S
C468        C469   1.398       .  A
C469        C470   1.387       .  A
C469        H474   1.083       .  S
C470        C471   1.407       .  A
C470        H475   1.084       .  S
C471        C472   1.407       .  A
C472        H476   1.076       .  S
C477        C478   1.403       .  A
C477        C482   1.397       .  A
C477        H483   1.083       .  S
C478        C479   1.402       .  A
C479        C480   1.393       .  A
C479        H484   1.083       .  S
C480        C481   1.405       .  A
C480        H485   1.083       .  S
C481        C482   1.403       .  A
C482        H486   1.083       .  S
C487        C488   1.408       .  A
C487        C492   1.393       .  A
C487        H493   1.077       .  S
C488        C489   1.407       .  A
C489        C490   1.389       .  A
C489        H494   1.083       .  S
C490        C491   1.398       .  A
C490        H495   1.083       .  S
C491        C492   1.401       .  A
C492        H496   1.083       .  S
C497        C498   1.398       .  A
C497        C502   1.393       .  A
C497        H503   1.081       .  S
C498        C499   1.398       .  A
C499        C500   1.380       .  A
C499        H504   1.084       .  S
C500        C501   1.400       .  A
C500        H505   1.083       .  S
C501        C502   1.403       .  A
C502        H506   1.083       .  S
C507        C508   1.408       .  A
C507        C512   1.386   1_655  A
C507        H513   1.076   1_655  S
C508        C509   1.405       .  A
C509        C510   1.380       .  A
C509        H514   1.084       .  S
C510        C511   1.397   1_655  A
C510        H515   1.083       .  S
C511        C512   1.396       .  A
C512        H516   1.084       .  S
C517        C518   1.401       .  A
C517        C522   1.394       .  A
C517        H523   1.081       .  S
C518        C519   1.395       .  A
C519        C520   1.378       .  A
C519        H524   1.084       .  S
C520        C521   1.402       .  A
C520        H525   1.083   1_655  S
C521        C522   1.400       .  A
C522        H526   1.083       .  S
C527        C528   1.404       .  A
C527        C532   1.388       .  A
C527        H533   1.082       .  S
C528        C529   1.406       .  A
C529        C530   1.394       .  A
C529        H534   1.081       .  S
C530        C531   1.400       .  A
C530        H535   1.083       .  S
C531        C532   1.402       .  A
C532        H536   1.083       .  S
C537        C538   1.396       .  A
C537        C542   1.387       .  A
C537        H543   1.084       .  S
C538        C539   1.398       .  A
C539        C540   1.390       .  A
C539        H544   1.084       .  S
C540        C541   1.402       .  A
C540        H545   1.083       .  S
C541        C542   1.403       .  A
C542        H546   1.083       .  S
C547        C548   1.404       .  A
C547        C552   1.388       .  A
C547        H553   1.083       .  S
C548        C549   1.402   1_565  A
C549        C550   1.392   1_545  A
C549        H554   1.083       .  S
C550        C551   1.400       .  A
C550        H555   1.084       .  S
C551        C552   1.397       .  A
C552        H556   1.084       .  S
C557        C558   1.395       .  A
C557        C562   1.391   1_565  A
C557        H563   1.083       .  S
C558        C559   1.400       .  A
C559        C560   1.390       .  A
C559        H564   1.083       .  S
C560        C561   1.401       .  A
C560        H565   1.083       .  S
C561        C562   1.406   1_565  A
C562        H566   1.083       .  S
C567        C568   1.406       .  A
C567        C572   1.389       .  A
C567        H573   1.083       .  S
C568        C569   1.410       .  A
C569        C570   1.393       .  A
C569        H574   1.077       .  S
C570        C571   1.399       .  A
C570        H575   1.083       .  S
C571        C572   1.400       .  A
C572        H576   1.083       .  S
C577        C578   1.399       .  A
C577        C582   1.395       .  A
C577        H583   1.082       .  S
C578        C579   1.397       .  A
C579        C580   1.378       .  A
C579        H584   1.084       .  S
C580        C581   1.399       .  A
C580        H585   1.083       .  S
C581        C582   1.404       .  A
C582        H586   1.083       .  S
C587        C588   1.398       .  A
C587        C592   1.380       .  A
C587        H593   1.084       .  S
C588        C589   1.397       .  A
C589        C590   1.391       .  A
C589        H594   1.082       .  S
C590        C591   1.402       .  A
C590        H595   1.083       .  S
C591        C592   1.399       .  A
C592        H596   1.083   1_556  S
C597        C598   1.397   1_554  A
C597        C602   1.386   1_554  A
C597        H603   1.084       .  S
C598        C599   1.395       .  A
C599        C600   1.380       .  A
C599        H604   1.083       .  S
C600        C601   1.406       .  A
C600        H605   1.084       .  S
C601        C602   1.406       .  A
C602        H606   1.077   1_556  S
C607        C608   1.404       .  A
C607        C612   1.394       .  A
C607        H613   1.082       .  S
C608        C609   1.405       .  A
C609        C610   1.391       .  A
C609        H614   1.082       .  S
C610        C611   1.401       .  A
C610        H615   1.083       .  S
C611        C612   1.403       .  A
C612        H616   1.083       .  S
C617        C618   1.397       .  A
C617        C622   1.384       .  A
C617        H623   1.083       .  S
C618        C619   1.400       .  A
C619        C620   1.387       .  A
C619        H624   1.084       .  S
C620        C621   1.407       .  A
C620        H625   1.077       .  S
C621        C622   1.407       .  A
C622        H626   1.083       .  S
C627        C628   1.401       .  A
C627        C632   1.382       .  A
C627        H633   1.083   1_545  S
C628        C629   1.405   1_554  A
C629        C630   1.398   1_556  A
C629        H634   1.083       .  S
C630        C631   1.400       .  A
C630        H635   1.082   1_554  S
C631        C632   1.398       .  A
C632        H636   1.084       .  S
C637        C638   1.402   1_554  A
C637        C642   1.390       .  A
C637        H643   1.083       .  S
C638        C639   1.404       .  A
C639        C640   1.389       .  A
C639        H644   1.083       .  S
C640        C641   1.396   1_556  A
C640        H645   1.084       .  S
C641        C642   1.398       .  A
C642        H646   1.084       .  S
C647        C648   1.402   1_545  A
C647        C652   1.391       .  A
C647        H653   1.083       .  S
C648        C649   1.403       .  A
C649        C650   1.386   1_565  A
C649        H654   1.083       .  S
C650        C651   1.398       .  A
C650        H655   1.084       .  S
C651        C652   1.398       .  A
C652        H656   1.084       .  S
C657        C658   1.397       .  A
C657        C662   1.395       .  A
C657        H663   1.083       .  S
C658        C659   1.397       .  A
C659        C660   1.389       .  A
C659        H664   1.083       .  S
C660        C661   1.402       .  A
C660        H665   1.083       .  S
C661        C662   1.406       .  A
C662        H666   1.083       .  S
C667        C668   1.400       .  A
C667        C672   1.386       .  A
C667        H673   1.083   1_455  S
C668        C669   1.404   1_554  A
C669        C670   1.395   1_556  A
C669        H674   1.083       .  S
C670        C671   1.398       .  A
C670        H675   1.083   1_554  S
C671        C672   1.400       .  A
C672        H676   1.084       .  S
C677        C678   1.401       .  A
C677        C682   1.391   1_556  A
C677        H683   1.083       .  S
C678        C679   1.406   1_556  A
C679        C680   1.391       .  A
C679        H684   1.083       .  S
C680        C681   1.395       .  A
C680        H685   1.084       .  S
C681        C682   1.399       .  A
C682        H686   1.084   1_554  S
C687        C688   1.400   1_655  A
C687        C692   1.393   1_655  A
C687        H693   1.083       .  S
C688        C689   1.402       .  A
C689        C690   1.382       .  A
C689        H694   1.083       .  S
C690        C691   1.397       .  A
C690        H695   1.084       .  S
C691        C692   1.401       .  A
C692        H696   1.082       .  S
C697        C698   1.405       .  A
C697        C702   1.390       .  A
C697        H703   1.083       .  S
C698        C699   1.403       .  A
C699        C700   1.393       .  A
C699        H704   1.083       .  S
C700        C701   1.399       .  A
C700        H705   1.084       .  S
C701        C702   1.397       .  A
C702        H706   1.084       .  S
C707        C708   1.398   1_545  A
C707        C712   1.383   1_655  A
C707        H713   1.083       .  S
C708        C709   1.398   1_655  A
C709        C710   1.388       .  A
C709        H714   1.083       .  S
C710        C711   1.408   1_565  A
C710        H715   1.079       .  S
C711        C712   1.406       .  A
C712        H716   1.082   1_455  S
C717        C718   1.397       .  A
C717        C722   1.382       .  A
C717        H723   1.084       .  S
C718        C719   1.398       .  A
C719        C720   1.394   1_455  A
C719        H724   1.082   1_455  S
C720        C721   1.403       .  A
C720        H725   1.083       .  S
C721        C722   1.400   1_655  A
C722        H726   1.083       .  S
C727        C728   1.406   1_545  A
C727        C732   1.390       .  A
C727        H733   1.083       .  S
C728        C729   1.401       .  A
C729        C730   1.387   1_565  A
C729        H734   1.083       .  S
C730        C731   1.398       .  A
C730        H735   1.084       .  S
C731        C732   1.394       .  A
C732        H736   1.083       .  S
C737        C738   1.395       .  A
C737        C742   1.392   1_565  A
C737        H743   1.083   1_565  S
C738        C739   1.399       .  A
C739        C740   1.388   1_556  A
C739        H744   1.084       .  S
C740        C741   1.402   1_554  A
C740        H745   1.083       .  S
C741        C742   1.406   1_565  A
C742        H746   1.083       .  S
C747        C748   1.400       .  A
C747        C752   1.391       .  A
C747        H753   1.083       .  S
C748        C749   1.402       .  A
C749        C750   1.392       .  A
C749        H754   1.083       .  S
C750        C751   1.399   1_655  A
C750        H755   1.083   1_565  S
C751        C752   1.401   1_455  A
C752        H756   1.083   1_655  S
C757        C758   1.406       .  A
C757        C762   1.390       .  A
C757        H763   1.083       .  S
C758        C759   1.410       .  A
C759        C760   1.390       .  A
C759        H764   1.076       .  S
C760        C761   1.397       .  A
C760        H765   1.083       .  S
C761        C762   1.401       .  A
C762        H766   1.083       .  S
C767        C768   1.396       .  A
C767        C772   1.388   1_556  A
C767        H773   1.083       .  S
C768        C769   1.397       .  A
C769        C770   1.391   1_655  A
C769        H774   1.084       .  S
C770        C771   1.404   1_455  A
C770        H775   1.083       .  S
C771        C772   1.403   1_556  A
C772        H776   1.083       .  S
