geometry optimzed in LAMMPS
_audit_creation_date              2020-11-30 
_audit_creation_method            'lammps2cif' 
_symmetry_space_group_name_H-M    'P1' 
_symmetry_Int_Tables_number       1 
_symmetry_cell_setting            triclinic 
loop_ 
_symmetry_equiv_pos_as_xyz 
  x,y,z 
_cell_length_a                    53.35552272 
_cell_length_b                    53.23341142652678 
_cell_length_c                    36.85820197183246 
_cell_angle_alpha                 90.07892095187583 
_cell_angle_beta                  90.29470198304038 
_cell_angle_gamma                 90.21776977401208 
loop_ 
_atom_site_label 
_atom_site_type_symbol 
_atom_site_fract_x 
_atom_site_fract_y 
_atom_site_fract_z 
_atom_site_charge 
C1          C  0.52456631  0.91056848  0.16855813     0.88400
C2          C  0.49848135  0.90252553  0.15490535    -0.51800
C3          C  0.47901208  0.91407008  0.17192580     0.11400
C4          C  0.48747707  0.93242911  0.20170401     0.22300
C5          C  0.52480716  0.93936563  0.16519511    -0.52500
C6          C  0.50542941  0.95071434  0.18259790     0.11500
C7          C  0.52405801  0.90550517  0.20983931    -0.52100
C8          C  0.50443768  0.91709663  0.22706057     0.12000
H9          H  0.49576449  0.88891991  0.13325095     0.16500
H10         H  0.47171886  0.94196028  0.21565894     0.02300
H11         H  0.53826465  0.94970349  0.14890685     0.16900
H12         H  0.53791877  0.89427161  0.22401804     0.16600
C13         C  0.47748530  0.90954548  0.32290734     0.88400
C14         C  0.50298038  0.90392350  0.33971001    -0.51800
C15         C  0.52255811  0.91683359  0.32488020     0.11400
C16         C  0.51445457  0.93429318  0.29330363     0.22300
C17         C  0.47486334  0.93804255  0.32504881    -0.52500
C18         C  0.49375821  0.95156877  0.30932511     0.11500
C19         C  0.48060235  0.90393205  0.28224395    -0.52100
C20         C  0.50019462  0.91674679  0.26674945     0.12000
H21         H  0.50518577  0.89017012  0.36116583     0.16500
H22         H  0.53029587  0.94447459  0.28058253     0.02300
H23         H  0.45850688  0.94633440  0.33739224     0.16900
H24         H  0.46807283  0.89174700  0.26690911     0.16600
C25         C  0.47416112  0.01293748  0.15864793     0.88400
C26         C  0.49859403  0.02503221  0.14588254    -0.51800
C27         C  0.51942109  0.01775355  0.16505442     0.11400
C28         C  0.51342195  0.99934347  0.19638071     0.22300
C29         C  0.47913932  0.98459834  0.15826867    -0.52500
C30         C  0.49945596  0.97747457  0.17791682     0.11500
C31         C  0.47243985  0.01950998  0.19917761    -0.52100
C32         C  0.49294022  0.01216803  0.21961010     0.12000
H33         H  0.49913482  0.03775549  0.12293690     0.16500
H34         H  0.53028395  0.99323449  0.21161095     0.02300
H35         H  0.46727102  0.97105342  0.14419952     0.16900
H36         H  0.45566818  0.02772830  0.21051393     0.16600
C37         C  0.47718766  0.02217577  0.32100416     0.88400
C38         C  0.47608881  0.02655062  0.28001529    -0.51800
C39         C  0.49333660  0.01302118  0.26056248     0.11400
C40         C  0.51085247  0.99682285  0.28537209     0.22300
C41         C  0.47525412  0.99369677  0.32576692    -0.52500
C42         C  0.49281450  0.97990579  0.30735424     0.11500
C43         C  0.50390506  0.02857223  0.33197047    -0.52100
C44         C  0.52179592  0.01538203  0.31392682     0.12000
H45         H  0.46235076  0.03892141  0.26780434     0.16500
H46         H  0.52541940  0.98619301  0.27077270     0.02300
H47         H  0.46122383  0.98573855  0.34350390     0.16900
H48         H  0.50815408  0.04116543  0.35440655     0.16600
C49         C  0.93913023  0.44632521  0.16916488     0.88400
C50         C  0.96756146  0.44407086  0.16573675    -0.51800
C51         C  0.98125264  0.46205407  0.18366308     0.11400
C52         C  0.96429123  0.48149680  0.20305978     0.22300
C53         C  0.93421761  0.44697098  0.21044872    -0.52500
C54         C  0.94736806  0.46551405  0.22844262     0.11500
C55         C  0.93332710  0.47280165  0.15588265    -0.52100
C56         C  0.94648055  0.49142315  0.17289379     0.12000
H57         H  0.97568922  0.42912977  0.14978106     0.16500
H58         H  0.97456609  0.49662241  0.21755803     0.02300
H59         H  0.92170139  0.43398050  0.22410394     0.16900
H60         H  0.92115596  0.47622574  0.13272822     0.16600
C61         C  0.93687478  0.49107740  0.32577416     0.88400
C62         C  0.93294671  0.48882977  0.28436869    -0.51800
C63         C  0.94614528  0.46950139  0.26878085     0.11400
C64         C  0.96197206  0.45428210  0.29660246     0.22300
C65         C  0.93016008  0.46528423  0.34102954    -0.52500
C66         C  0.94326403  0.44581887  0.32646863     0.11500
C67         C  0.96522595  0.49317770  0.33072458    -0.52100
C68         C  0.97886259  0.47432561  0.31534379     0.12000
H69         H  0.92150765  0.50176117  0.26875544     0.16500
H70         H  0.97221004  0.43843627  0.28415512     0.02300
H71         H  0.91737435  0.46297943  0.36362601     0.16900
H72         H  0.97337065  0.50894345  0.34517696     0.16600
C73         C  0.05152597  0.44362657  0.17663749     0.88400
C74         C  0.05938866  0.46914602  0.16105684    -0.51800
C75         C  0.04615043  0.48895567  0.17456848     0.11400
C76         C  0.02649132  0.48138658  0.20326291     0.22300
C77         C  0.05438660  0.44639600  0.21780837    -0.52500
C78         C  0.04143404  0.46625124  0.23171926     0.11500
C79         C  0.02309790  0.44204286  0.17051162    -0.52100
C80         C  0.00952436  0.46159970  0.18454975     0.12000
H81         H  0.07326563  0.47115394  0.13978744     0.16500
H82         H  0.01635729  0.49761753  0.21489034     0.02300
H83         H  0.06519830  0.43360030  0.23457478     0.16900
H84         H  0.01489857  0.42588869  0.15704111     0.16600
C85         C  0.04930572  0.49063167  0.32905638     0.88400
C86         C  0.05532483  0.46421277  0.34268612    -0.51800
C87         C  0.04197250  0.44561874  0.32593915     0.11400
C88         C  0.02374822  0.45521181  0.29657786     0.22300
C89         C  0.05367113  0.48966259  0.28791718    -0.52500
C90         C  0.04019414  0.47108127  0.27101558     0.11500
C91         C  0.02085138  0.49294444  0.33317515    -0.52100
C92         C  0.00704423  0.47454886  0.31599828     0.12000
H93         H  0.06817873  0.46063919  0.36501352     0.16500
H94         H  0.01349585  0.43992539  0.28240821     0.02300
H95         H  0.06614853  0.50232718  0.27354846     0.16900
H96         H  0.01291243  0.50823426  0.34863809     0.16600
C97         C  0.91985297  0.34250921  0.09353888     0.88400
C98         C  0.94845527  0.34191986  0.08941945    -0.51800
C99         C  0.95881023  0.36494422  0.08343427     0.11400
C100        C  0.93976484  0.38643202  0.08206683     0.22300
C101        C  0.91520138  0.36107658  0.12447298    -0.52500
C102        C  0.92569354  0.38418154  0.11882654     0.11500
C103        C  0.91026355  0.35523801  0.05902197    -0.52100
C104        C  0.92117168  0.37795401  0.05210337     0.12000
H105        H  0.95952194  0.32483927  0.09103144     0.16500
H106        H  0.94838297  0.40515970  0.07724084     0.02300
H107        H  0.90629979  0.35582433  0.14980095     0.16900
H108        H  0.89868503  0.34542357  0.03914921     0.16600
C109        C  0.91354286  0.34553017  0.40160383     0.88400
C110        C  0.90717225  0.35584440  0.43913893    -0.51800
C111        C  0.92027756  0.37694014  0.44843618     0.11400
C112        C  0.93856455  0.38602091  0.41860450     0.22300
C113        C  0.90899404  0.36738025  0.37517615    -0.52500
C114        C  0.92257499  0.38851764  0.38365407     0.11500
C115        C  0.94199973  0.34192411  0.40211070    -0.52100
C116        C  0.95498924  0.36310002  0.41085157     0.12000
H117        H  0.89452136  0.34636301  0.45771925     0.16500
H118        H  0.94938287  0.40319298  0.42588587     0.02300
H119        H  0.89686523  0.36605133  0.35149768     0.16900
H120        H  0.95111130  0.32430177  0.39532922     0.16600
C121        C  0.07453363  0.34813686  0.09559514     0.88400
C122        C  0.08366321  0.35551897  0.05774916    -0.51800
C123        C  0.07217954  0.37627038  0.04408074     0.11400
C124        C  0.05273566  0.38788960  0.06950701     0.22300
C125        C  0.07839042  0.37175759  0.11946552    -0.52500
C126        C  0.06665370  0.39269312  0.10556529     0.11500
C127        C  0.04602403  0.34553393  0.09182956    -0.52100
C128        C  0.03469198  0.36638954  0.07845645     0.12000
H129        H  0.09682901  0.34437014  0.04217067     0.16500
H130        H  0.04314291  0.40462810  0.05806498     0.02300
H131        H  0.08832936  0.37156868  0.14521915     0.16900
H132        H  0.03561028  0.32892633  0.10009963     0.16600
C133        C  0.07031647  0.34132981  0.38613828     0.88400
C134        C  0.04169632  0.33924863  0.38939779    -0.51800
C135        C  0.03068840  0.36089492  0.40066665     0.11400
C136        C  0.04895143  0.38256829  0.40749298     0.22300
C137        C  0.07494342  0.36353017  0.36042838    -0.52500
C138        C  0.06332459  0.38507808  0.37152372     0.11500
C139        C  0.07928906  0.35033996  0.42340082    -0.52100
C140        C  0.06801696  0.37183640  0.43470688     0.12000
H141        H  0.03114906  0.32217399  0.38369216     0.16500
H142        H  0.03975549  0.40013484  0.41677069     0.02300
H143        H  0.08574785  0.36225266  0.33561532     0.16900
H144        H  0.09191475  0.33958520  0.44057948     0.16600
C145        C  0.37507297  0.90047055  0.10671104     0.88400
C146        C  0.38034347  0.88823873  0.06983770    -0.51800
C147        C  0.40105043  0.89762673  0.05311121     0.11400
C148        C  0.41470618  0.91814414  0.07468391     0.22300
C149        C  0.39928982  0.89711115  0.12918440    -0.52500
C150        C  0.42012108  0.90647407  0.11200476     0.11500
C151        C  0.37378926  0.92869931  0.09889097    -0.52100
C152        C  0.39458907  0.93783910  0.08223424     0.12000
H153        H  0.36786342  0.87465334  0.05702849     0.16500
H154        H  0.43150409  0.92587931  0.06081758     0.02300
H155        H  0.39993094  0.88819657  0.15564501     0.16900
H156        H  0.35798517  0.94046368  0.10620961     0.16600
C157        C  0.37093772  0.89545222  0.38847822     0.88400
C158        C  0.37243879  0.92396239  0.39396823    -0.51800
C159        C  0.39600264  0.93255237  0.40101256     0.11400
C160        C  0.41596990  0.91186872  0.40212355     0.22300
C161        C  0.38935675  0.88993216  0.35778779    -0.52500
C162        C  0.41308360  0.89850121  0.36479100     0.11500
C163        C  0.38256900  0.88425567  0.42276630    -0.52100
C164        C  0.40591787  0.89323945  0.43065382     0.12000
H165        H  0.35629773  0.93631551  0.39227802     0.16500
H166        H  0.43515908  0.91905280  0.40796259     0.02300
H167        H  0.38386547  0.88151009  0.33208687     0.16900
H168        H  0.37187453  0.87289875  0.44173539     0.16600
C169        C  0.37783557  0.05379669  0.08507573     0.88400
C170        C  0.37512517  0.02519136  0.08191920    -0.51800
C171        C  0.39664980  0.01338824  0.07249201     0.11400
C172        C  0.41901316  0.03100919  0.06700866     0.22300
C173        C  0.39932218  0.05793007  0.11250183    -0.52500
C174        C  0.42088042  0.04550055  0.10344097     0.11500
C175        C  0.38821411  0.06219396  0.04842749    -0.52100
C176        C  0.40966399  0.05012566  0.03863522     0.12000
H177        H  0.35780919  0.01508119  0.08740702     0.16500
H178        H  0.43646370  0.02113082  0.05906893     0.02300
H179        H  0.39709870  0.06799765  0.13791662     0.16900
H180        H  0.37814427  0.07471773  0.03025577     0.16600
C181        C  0.37324845  0.04590139  0.38981006     0.88400
C182        C  0.38532362  0.05780392  0.42331610    -0.51800
C183        C  0.40821426  0.04819618  0.43190305     0.11400
C184        C  0.41739070  0.02804180  0.40496816     0.22300
C185        C  0.39205262  0.04944175  0.35898671    -0.52500
C186        C  0.41524316  0.03994326  0.36672867     0.11500
C187        C  0.37331196  0.01753137  0.39723252    -0.52100
C188        C  0.39649119  0.00819362  0.40482535     0.12000
H189        H  0.37529423  0.07051048  0.44119167     0.16500
H190        H  0.43617031  0.02023988  0.41148291     0.02300
H191        H  0.38696980  0.05677696  0.33248612     0.16900
H192        H  0.35670160  0.00572034  0.39517803     0.16600
C193        C  0.62908977  0.88765393  0.09811313     0.88400
C194        C  0.62908072  0.91539563  0.08705935    -0.51800
C195        C  0.60584201  0.92444662  0.07956555     0.11400
C196        C  0.58475934  0.90506385  0.08344016     0.22300
C197        C  0.61122226  0.88628659  0.13050904    -0.52500
C198        C  0.58788024  0.89551608  0.12297061     0.11500
C199        C  0.61589771  0.87390561  0.06689939    -0.52100
C200        C  0.59289661  0.88338289  0.05833946     0.12000
H201        H  0.64585354  0.92705449  0.08632110     0.16500
H202        H  0.56589684  0.91274526  0.07714895     0.02300
H203        H  0.61692744  0.88018685  0.15740865     0.16900
H204        H  0.62549034  0.86041962  0.04974270     0.16600
C205        C  0.62231738  0.89321989  0.39963729     0.88400
C206        C  0.61393577  0.88140303  0.43543126    -0.51800
C207        C  0.59346717  0.89255425  0.45018329     0.11400
C208        C  0.58307804  0.91445818  0.42759294     0.22300
C209        C  0.59911716  0.89230647  0.37439119    -0.52500
C210        C  0.57852310  0.90368744  0.38939346     0.11500
C211        C  0.62597001  0.92114628  0.40806554    -0.52100
C212        C  0.60532864  0.93226591  0.42219401     0.12000
H213        H  0.62433778  0.86667449  0.44919631     0.16500
H214        H  0.56645082  0.92371111  0.43972767     0.02300
H215        H  0.59897506  0.88368326  0.34768682     0.16900
H216        H  0.64270120  0.93164924  0.40070348     0.16600
C217        C  0.62161466  0.03882080  0.09739612     0.88400
C218        C  0.61509583  0.04947948  0.05992565    -0.51800
C219        C  0.59454098  0.03867732  0.04436776     0.11400
C220        C  0.58217806  0.01835079  0.06775401     0.22300
C221        C  0.59768309  0.04190442  0.12041836    -0.52500
C222        C  0.57693472  0.03100345  0.10450248     0.11500
C223        C  0.62395108  0.01044940  0.09154675    -0.52100
C224        C  0.60325737  0.99982929  0.07620901     0.12000
H225        H  0.62676879  0.06307138  0.04585137     0.16500
H226        H  0.56550318  0.00936849  0.05491401     0.02300
H227        H  0.59719774  0.05155212  0.14636990     0.16900
H228        H  0.64029295  0.99960401  0.09959981     0.16600
C229        C  0.62178771  0.04674015  0.38772535     0.88400
C230        C  0.62491494  0.01865322  0.39589557    -0.51800
C231        C  0.60310478  0.00701686  0.40499886     0.11400
C232        C  0.58022233  0.02416946  0.40465141     0.22300
C233        C  0.60198554  0.04816902  0.35767372    -0.52500
C234        C  0.58028580  0.03597532  0.36630282     0.11500
C235        C  0.60927012  0.05758724  0.42151646    -0.52100
C236        C  0.58771808  0.04545272  0.43101478     0.12000
H237        H  0.64282760  0.00899897  0.39540325     0.16500
H238        H  0.56237379  0.01461157  0.41187078     0.02300
H239        H  0.60472273  0.05796119  0.33216015     0.16900
H240        H  0.61849709  0.07121580  0.43912955     0.16600
In241      In  0.91310705  0.17153379  0.12158034     1.36900
C242        C  0.90460555  0.21984973  0.10865040     0.79500
O243        O  0.89344829  0.17819935  0.17421537    -0.58900
O244        O  0.92292102  0.15138635  0.17325446    -0.49800
C245        C  0.88058420  0.13749690  0.09604330     0.72200
O246        O  0.87568259  0.16056508  0.09720645    -0.44700
C247        C  0.96140872  0.16949480  0.10296221     0.76900
O248        O  0.90535818  0.20388257  0.08333060    -0.56500
O249        O  0.95401159  0.17434938  0.13447556    -0.46600
O250        O  0.90789496  0.21113334  0.13994823    -0.53000
C251        C  0.90693927  0.16307853  0.19174628     0.87100
O252        O  0.90247630  0.13192466  0.10579775    -0.54900
O253        O  0.94412929  0.16557659  0.08014376    -0.58200
In254      In  0.79286060  0.05294573  0.12250315     1.36900
C255        C  0.80154036  0.06419094  0.19138136     0.79500
O256        O  0.79959618  0.01231895  0.13234993    -0.58900
O257        O  0.79618491  0.02395938  0.07741177    -0.49800
C258        C  0.74314205  0.05611393  0.11665010     0.72200
O259        O  0.75406428  0.04598643  0.14308886    -0.44700
C260        C  0.82686403  0.08443100  0.09550398     0.76900
O261        O  0.78891575  0.07825743  0.17090360    -0.56500
O262        O  0.83230440  0.06273718  0.10637611    -0.46600
O263        O  0.81025155  0.04480249  0.17657734    -0.53000
C264        C  0.79945004  0.00611283  0.09944758     0.87100
O265        O  0.75752838  0.06445415  0.09233080    -0.54900
O266        O  0.80381854  0.08945948  0.09571066    -0.58200
In267      In  0.91002193  0.17625451  0.37163324     1.36900
C268        C  0.90654963  0.16575585  0.30138351     0.79500
O269        O  0.95064112  0.18596084  0.36735193    -0.58900
O270        O  0.93996238  0.16152353  0.41007404    -0.49800
C271        C  0.89851396  0.22439381  0.38217168     0.72200
O272        O  0.89749802  0.21398434  0.35159774    -0.44700
C273        C  0.87870487  0.14215440  0.39848655     0.76900
O274        O  0.88799209  0.17282711  0.31967406    -0.56500
O275        O  0.89771982  0.13645097  0.38028295    -0.46600
O276        O  0.92671318  0.16359121  0.31894905    -0.53000
C277        C  0.95747125  0.17267171  0.39373871     0.87100
O278        O  0.90478270  0.21015320  0.40795076    -0.54900
O279        O  0.87631035  0.16525255  0.40503429    -0.58200
In280      In  0.79188866  0.05792297  0.36931378     1.36900
C281        C  0.80155604  0.06709893  0.30026470     0.79500
O282        O  0.80248480  0.09507440  0.39450965    -0.58900
O283        O  0.83068835  0.06735526  0.38951584    -0.49800
C284        C  0.74290186  0.06413158  0.37600319     0.72200
O285        O  0.75275094  0.05454961  0.34839001    -0.44700
C286        C  0.79516966  0.01008026  0.38992426     0.76900
O287        O  0.78691529  0.08060053  0.31844436    -0.56500
O288        O  0.79315500  0.02760038  0.41282540    -0.46600
O289        O  0.81208748  0.04972312  0.31762917    -0.53000
C290        C  0.82523629  0.08952124  0.39818237     0.87100
O291        O  0.75797681  0.07029881  0.40098384    -0.54900
O292        O  0.79587710  0.01708361  0.35743303    -0.58200
In293      In  0.91498883  0.77162366  0.37345106     1.36900
C294        C  0.90785341  0.78057820  0.30372138     0.79500
O295        O  0.87692656  0.78167955  0.39510915    -0.58900
O296        O  0.90437815  0.81048669  0.39221185    -0.49800
C297        C  0.91089028  0.72207482  0.37936114     0.72200
O298        O  0.91994113  0.73266603  0.35192293    -0.44700
C299        C  0.96118913  0.77635309  0.39961419     0.76900
O300        O  0.89307858  0.76714454  0.32191311    -0.56500
O301        O  0.94274033  0.77274370  0.42025203    -0.46600
O302        O  0.92575733  0.79024055  0.32131022    -0.53000
C303        C  0.88200795  0.80462998  0.39888261     0.87100
O304        O  0.90386107  0.73670248  0.40424310    -0.54900
O305        O  0.95587996  0.77818921  0.36647103    -0.58200
In306      In  0.79247840  0.88686214  0.36933238     1.36900
C307        C  0.80377023  0.87987166  0.30024337     0.79500
O308        O  0.79304808  0.92789045  0.35725434    -0.58900
O309        O  0.79584560  0.91726352  0.41261417    -0.49800
C310        C  0.74332518  0.87892102  0.37684204     0.72200
O311        O  0.75351158  0.88312633  0.34682254    -0.44700
C312        C  0.82719709  0.85618505  0.39689594     0.76900
O313        O  0.79183171  0.86374196  0.31831618    -0.56500
O314        O  0.83193211  0.87845710  0.38786105    -0.46600
O315        O  0.81044969  0.89918292  0.31757504    -0.53000
C316        C  0.79502689  0.93485949  0.38972075     0.87100
O317        O  0.75818603  0.87843374  0.40356273    -0.54900
O318        O  0.80447047  0.85001446  0.39433188    -0.58200
In319      In  0.91879131  0.76421292  0.12698953     1.36900
C320        C  0.90943570  0.77669528  0.19498754     0.79500
O321        O  0.95904100  0.76182201  0.14347815    -0.58900
O322        O  0.95130801  0.76954854  0.08806674    -0.49800
C323        C  0.91086026  0.71550221  0.11583210     0.72200
O324        O  0.91559166  0.72465319  0.14657626    -0.44700
C325        C  0.88738722  0.79739383  0.09781958     0.76900
O326        O  0.89683698  0.76024839  0.17833803    -0.56500
O327        O  0.90968358  0.80283525  0.10592975    -0.46600
O328        O  0.92632261  0.78725609  0.17674316    -0.53000
C329        C  0.96764594  0.76619183  0.11245271     0.87100
O330        O  0.91006289  0.73120498  0.09020419    -0.54900
O331        O  0.88167432  0.77460914  0.10172437    -0.58200
In332      In  0.80106058  0.88398282  0.12033676     1.36900
C333        C  0.80816177  0.87812652  0.19090043     0.79500
O334        O  0.81209504  0.84514987  0.10208436    -0.58900
O335        O  0.83968991  0.87379523  0.10031134    -0.49800
C336        C  0.75235052  0.87755211  0.10914910     0.72200
O337        O  0.76141706  0.88506218  0.13875599    -0.44700
C338        C  0.80401481  0.93153143  0.09848214     0.76900
O339        O  0.79312146  0.86467677  0.17292989    -0.56500
O340        O  0.80188496  0.91371339  0.07606527    -0.46600
O341        O  0.82048913  0.89388027  0.17268445    -0.53000
C342        C  0.83455629  0.85089561  0.09609161     0.87100
O343        O  0.76812849  0.87334868  0.08448541    -0.54900
O344        O  0.80548955  0.92495626  0.13113256    -0.58200
In345      In  0.07954239  0.17033186  0.37072442     1.36900
C346        C  0.08653995  0.21972377  0.37434956     0.79500
O347        O  0.10310231  0.17268228  0.32075697    -0.58900
O348        O  0.06913688  0.15160782  0.31830650    -0.49800
C349        C  0.11032659  0.13641488  0.39959911     0.72200
O350        O  0.11623670  0.15916959  0.39630472    -0.44700
C351        C  0.03218590  0.16823766  0.39283676     0.76900
O352        O  0.09162610  0.20550213  0.40072671    -0.56500
O353        O  0.03873304  0.16454537  0.36059636    -0.46600
O354        O  0.07780722  0.20883456  0.34677214    -0.53000
C355        C  0.08802137  0.15993039  0.30180682     0.87100
O356        O  0.08808980  0.13122992  0.39084227    -0.54900
O357        O  0.04994423  0.17240772  0.41480548    -0.58200
In358      In  0.20103728  0.05512031  0.37641212     1.36900
C359        C  0.19593673  0.06289253  0.30585872     0.78700
O360        O  0.18900179  0.01510448  0.37469453    -0.58900
O361        O  0.20439069  0.02841487  0.42435104    -0.49800
C362        C  0.25041218  0.06154129  0.38017923     0.72200
O363        O  0.23998957  0.04691571  0.35791766    -0.44700
C364        C  0.16446929  0.08449776  0.40082126     0.76900
O365        O  0.20260354  0.08013653  0.32733745    -0.56500
O366        O  0.16038725  0.06474198  0.38302770    -0.46600
O367        O  0.19143874  0.04199370  0.32041235    -0.53000
C368        C  0.19567554  0.01009182  0.40656662     0.87100
O369        O  0.23571240  0.07295524  0.40119374    -0.54900
O370        O  0.18719390  0.08870868  0.40808964    -0.58200
In371      In  0.08445556  0.17630025  0.12441705     1.36900
C372        C  0.09006203  0.16327363  0.19310226     0.79500
O373        O  0.04347437  0.17570551  0.13614126    -0.58900
O374        O  0.05423956  0.16973020  0.08144320    -0.49800
C375        C  0.08983351  0.22602890  0.11739148     0.72200
O376        O  0.08719308  0.21529057  0.14747451    -0.44700
C377        C  0.11926820  0.14503936  0.09852119     0.76900
O378        O  0.10395695  0.17932479  0.17812423    -0.56500
O379        O  0.09710200  0.13825365  0.10462463    -0.46600
O380        O  0.07370247  0.15335587  0.17288307    -0.53000
C381        C  0.03661114  0.17153089  0.10403425     0.87100
O382        O  0.08995098  0.21143300  0.09034010    -0.54900
O383        O  0.12322382  0.16819895  0.10249903    -0.58200
In384      In  0.20797871  0.06034678  0.12619262     1.36900
C385        C  0.19845094  0.06576285  0.19627264     0.79500
O386        O  0.19711874  0.09839437  0.10371520    -0.58900
O387        O  0.16872526  0.07075396  0.10848357    -0.49800
C388        C  0.25627120  0.06814401  0.11128100     0.72200
O389        O  0.24801187  0.06607046  0.14299269    -0.44700
C390        C  0.20460352  0.01166845  0.10935464     0.76900
O391        O  0.21195904  0.08104588  0.17907927    -0.56500
O392        O  0.19815782  0.02850380  0.08709514    -0.46600
O393        O  0.18902265  0.04832214  0.17753973    -0.53000
C394        C  0.17419973  0.09310745  0.10071969     0.87100
O395        O  0.23984151  0.06663872  0.08659223    -0.54900
O396        O  0.21302841  0.01973831  0.13906114    -0.58200
In397      In  0.19777006  0.88946302  0.38578900     1.36900
C398        C  0.16557838  0.85711782  0.41492108     0.79500
O399        O  0.19945655  0.91828149  0.43133235    -0.58900
O400        O  0.19044801  0.93012219  0.37781799    -0.49800
C401        C  0.24719736  0.88490580  0.38855878     0.72200
O402        O  0.23338005  0.87714282  0.41391789    -0.44700
C403        C  0.18748271  0.88140980  0.31638983     0.76900
O404        O  0.18823747  0.85181936  0.40989637    -0.56500
O405        O  0.17708527  0.89859238  0.33427694    -0.46600
O406        O  0.15967695  0.87935626  0.40740456    -0.53000
C407        C  0.19441527  0.93624691  0.41026599     0.87100
O408        O  0.23587974  0.89523332  0.36262492    -0.54900
O409        O  0.20201879  0.86751804  0.33427666    -0.58200
In410      In  0.08267059  0.76962588  0.38494261     1.36900
C411        C  0.09435887  0.77679155  0.31610573     0.79500
O412        O  0.04292179  0.77917083  0.37335211    -0.58900
O413        O  0.05222604  0.76982216  0.42776801    -0.49800
C414        C  0.08632929  0.72007888  0.39096293     0.72200
O415        O  0.07822622  0.73076810  0.36293256    -0.44700
C416        C  0.11336260  0.80355456  0.41428572     0.76900
O417        O  0.10902562  0.76595677  0.33788703    -0.56500
O418        O  0.09255113  0.80923457  0.40053328    -0.46600
O419        O  0.07421495  0.78457221  0.32963698    -0.53000
C420        C  0.03542010  0.77571450  0.40518654     0.87100
O421        O  0.09235616  0.73459576  0.41667278    -0.54900
O422        O  0.11792768  0.78040460  0.41529635    -0.58200
In423      In  0.20442200  0.88901646  0.13893231     1.36900
C424        C  0.19163951  0.88199481  0.20748234     0.79500
O425        O  0.19889349  0.93017486  0.14824094    -0.58900
O426        O  0.20453527  0.91830279  0.09394958    -0.49800
C427        C  0.25409603  0.88461102  0.13524693     0.72200
O428        O  0.24294954  0.89173236  0.16340202    -0.44700
C429        C  0.17313491  0.85461151  0.11081629     0.76900
O430        O  0.20819957  0.86903426  0.19212368    -0.56500
O431        O  0.16682349  0.87709912  0.11574201    -0.46600
O432        O  0.18119861  0.89822012  0.18775039    -0.53000
C433        C  0.20127983  0.93638968  0.11555848     0.87100
O434        O  0.23995018  0.87948242  0.10866732    -0.54900
O435        O  0.19583979  0.85014119  0.11732622    -0.58200
In436      In  0.09085718  0.76411256  0.13790514     1.36900
C437        C  0.09623951  0.71452330  0.13063029     0.79500
O438        O  0.11173001  0.75894087  0.19033437    -0.58900
O439        O  0.08207558  0.78552837  0.18853656    -0.49800
C440        C  0.12240025  0.79839102  0.11057368     0.72200
O441        O  0.12904791  0.77630787  0.11787895    -0.44700
C442        C  0.04309105  0.76705194  0.11705576     0.76900
O443        O  0.10273144  0.72964257  0.10597250    -0.56500
O444        O  0.05016871  0.76903437  0.14950274    -0.46600
O445        O  0.08724201  0.72468316  0.15843846    -0.53000
C446        C  0.09848593  0.77453636  0.20724820     0.87100
O447        O  0.09936598  0.80245201  0.11442529    -0.54900
O448        O  0.06049983  0.76407423  0.09438446    -0.58200
C449        C  0.92308352  0.59305661  0.09777066     0.88400
C450        C  0.91486385  0.58268546  0.06089471    -0.51800
C451        C  0.92604504  0.56060688  0.05175746     0.11400
C452        C  0.94439112  0.55068613  0.08104715     0.22300
C453        C  0.91761062  0.57198829  0.12510486    -0.52500
C454        C  0.92920291  0.54984004  0.11665368     0.11500
C455        C  0.95169094  0.59463848  0.09591766    -0.52100
C456        C  0.96274627  0.57248064  0.08736021     0.12000
H457        H  0.90252856  0.59280155  0.04250123     0.16500
H458        H  0.95361856  0.53267858  0.07387883     0.02300
H459        H  0.90619956  0.57443985  0.14914344     0.16900
H460        H  0.96233677  0.61163890  0.10178672     0.16600
C461        C  0.92275411  0.59806780  0.39220131     0.88400
C462        C  0.95103391  0.59672094  0.39932222    -0.51800
C463        C  0.95935076  0.57318563  0.40698842     0.11400
C464        C  0.93858551  0.55308156  0.40713230     0.22300
C465        C  0.91793264  0.57929635  0.36143778    -0.52500
C466        C  0.92616249  0.55560018  0.36904230     0.11500
C467        C  0.91069332  0.58670704  0.42596847    -0.52100
C468        C  0.91931979  0.56336466  0.43454123     0.12000
H469        H  0.96347139  0.61291764  0.39794659     0.16500
H470        H  0.94553701  0.53392164  0.41347361     0.02300
H471        H  0.91028261  0.58458543  0.33519561     0.16900
H472        H  0.89886147  0.59752738  0.44408832     0.16600
C473        C  0.07801647  0.59206412  0.11232293     0.88400
C474        C  0.04940610  0.59395659  0.10867084    -0.51800
C475        C  0.03831665  0.57224617  0.09735253     0.11400
C476        C  0.05644652  0.55063346  0.09087034     0.22300
C477        C  0.08252797  0.56983410  0.13823342    -0.52500
C478        C  0.07074450  0.54817551  0.12710449     0.11500
C479        C  0.08688487  0.58296448  0.07516475    -0.52100
C480        C  0.07548163  0.56138456  0.06378555     0.12000
H481        H  0.03890289  0.61099158  0.11413945     0.16500
H482        H  0.04712486  0.53303988  0.08155024     0.02300
H483        H  0.09309462  0.57128123  0.16341373     0.16900
H484        H  0.09935204  0.59383554  0.05796251     0.16600
C485        C  0.07225260  0.59649245  0.39506693     0.88400
C486        C  0.08449379  0.58439296  0.42819807    -0.51800
C487        C  0.07508497  0.56131536  0.43643890     0.11400
C488        C  0.05461523  0.55208386  0.40985873     0.22300
C489        C  0.07546305  0.57771889  0.36380388    -0.52500
C490        C  0.06613080  0.55433138  0.37149805     0.11500
C491        C  0.04406010  0.59619449  0.40295147    -0.52100
C492        C  0.03481535  0.57290520  0.41038707     0.12000
H493        H  0.09755839  0.59436578  0.44585033     0.16500
H494        H  0.04682362  0.53324122  0.41633261     0.02300
H495        H  0.08275005  0.58284055  0.33735205     0.16900
H496        H  0.03228036  0.61278283  0.40139466     0.16600
C497        C  0.07589552  0.55453662  0.02599106    -0.11300
C498        C  0.07817012  0.55183580  0.47284319    -0.12900
C499        C  0.98566734  0.56834743  0.41237888    -0.11300
C500        C  0.00825304  0.56845959  0.41356608    -0.12900
C501        C  0.01183205  0.57009837  0.09145713    -0.11300
C502        C  0.98945167  0.56987374  0.08798976    -0.12900
C503        C  0.92430015  0.55159059  0.01465530    -0.11300
C504        C  0.91824342  0.55545666  0.47208270    -0.12900
C505        C  0.09830795  0.68759642  0.12759282    -0.16600
C506        C  0.09789239  0.66487312  0.12695381     0.07500
C507        C  0.09469999  0.63840907  0.12597610     0.09400
C508        C  0.08911184  0.61648299  0.12254100    -0.17400
C509        C  0.14010366  0.81807897  0.10217735    -0.11300
C510        C  0.15529716  0.83502301  0.10221858    -0.12900
C511        C  0.08836290  0.69325565  0.39282819    -0.16600
C512        C  0.08843079  0.67064062  0.39129631     0.07500
C513        C  0.08605306  0.64429023  0.38864493     0.09400
C514        C  0.08140377  0.62211487  0.38870587    -0.17400
C515        C  0.10059503  0.77814473  0.24558384    -0.11300
C516        C  0.09933719  0.77876730  0.27813482    -0.12900
C517        C  0.18622095  0.87945668  0.24530174    -0.11300
C518        C  0.18479758  0.87918242  0.27787072    -0.12900
C519        C  0.13149811  0.82228042  0.42434488    -0.11300
C520        C  0.14730555  0.83850203  0.42454554    -0.12900
C521        C  0.20219663  0.98507340  0.10275122    -0.11300
C522        C  0.20115938  0.96241659  0.10478916    -0.12900
C523        C  0.15540998  0.11164997  0.09219978    -0.11300
C524        C  0.13899467  0.12727390  0.09135904    -0.12900
C525        C  0.19453678  0.98479605  0.41986145    -0.11300
C526        C  0.19411903  0.96216713  0.42097150    -0.12900
C527        C  0.19523906  0.06718941  0.23476440    -0.11300
C528        C  0.19457396  0.06632173  0.26737799    -0.12900
C529        C  0.09108538  0.15689931  0.26357792    -0.11300
C530        C  0.09167163  0.15799361  0.23103181    -0.12900
C531        C  0.14479153  0.10192936  0.40907784    -0.11300
C532        C  0.12839490  0.11748484  0.40879891    -0.12900
C533        C  0.91227559  0.61777143  0.10573222    -0.16600
C534        C  0.90758076  0.63984968  0.10836824     0.07500
C535        C  0.90604606  0.66634057  0.10937024     0.09400
C536        C  0.90721540  0.68895947  0.11086712    -0.17400
C537        C  0.01688327  0.76756705  0.10762207    -0.11300
C538        C  0.99424879  0.76729168  0.10628656    -0.12900
C539        C  0.86917112  0.81621751  0.08866759    -0.11300
C540        C  0.85330811  0.83233449  0.08832505    -0.12900
C541        C  0.80829586  0.87715659  0.26218815    -0.11300
C542        C  0.80977381  0.87668487  0.22962084    -0.12900
C543        C  0.91475029  0.62393448  0.38511942    -0.16600
C544        C  0.91092638  0.64617220  0.38276353     0.07500
C545        C  0.90901259  0.67259982  0.38220561     0.09400
C546        C  0.90906272  0.69523772  0.38177886    -0.17400
C547        C  0.98672710  0.77749746  0.41185942    -0.11300
C548        C  0.00928177  0.77731339  0.41366862    -0.12900
C549        C  0.90599593  0.78175805  0.23270758    -0.11300
C550        C  0.90556966  0.78303294  0.26525395    -0.12900
C551        C  0.84659568  0.83851821  0.40594757    -0.11300
C552        C  0.86311229  0.82306455  0.40657326    -0.12900
C553        C  0.79603126  0.96112736  0.39894077    -0.11300
C554        C  0.79607554  0.98382422  0.39906165    -0.12900
C555        C  0.98355603  0.16984983  0.40272204    -0.11300
C556        C  0.00613465  0.16853548  0.40254827    -0.12900
C557        C  0.84397337  0.10782288  0.40771988    -0.11300
C558        C  0.86008752  0.12376604  0.40782079    -0.12900
C559        C  0.80380791  0.95765616  0.08870809    -0.11300
C560        C  0.80231170  0.98027296  0.08896644    -0.12900
C561        C  0.80450649  0.06991190  0.26195705    -0.11300
C562        C  0.80445016  0.06893927  0.22936342    -0.12900
C563        C  0.01040915  0.16928646  0.09488492    -0.11300
C564        C  0.98775145  0.16867718  0.09464227    -0.12900
C565        C  0.90524475  0.16069007  0.23036020    -0.11300
C566        C  0.90517154  0.16163031  0.26300268    -0.12900
C567        C  0.86196996  0.11874932  0.08751885    -0.11300
C568        C  0.84578802  0.10282641  0.08720817    -0.12900
C569        C  0.71633770  0.06737836  0.37839655    -0.16600
C570        C  0.69378960  0.06778049  0.37811001     0.07500
C571        C  0.66756686  0.06476476  0.37769187     0.09400
C572        C  0.64590050  0.05862844  0.37980100    -0.17400
C573        C  0.58100095  0.04494982  0.46886836    -0.11300
C574        C  0.58895827  0.04198360  0.00637907    -0.12900
C575        C  0.64524429  0.04940835  0.11152513    -0.16600
C576        C  0.66714295  0.05463864  0.11567868     0.07500
C577        C  0.69356765  0.05746719  0.11565026     0.09400
C578        C  0.71621942  0.05779254  0.11495773    -0.17400
C579        C  0.60216619  0.98115581  0.41561789    -0.11300
C580        C  0.60285882  0.95903511  0.42174850    -0.12900
C581        C  0.64574970  0.88224940  0.38617961    -0.16600
C582        C  0.66755410  0.87714449  0.38165360     0.07500
C583        C  0.69398419  0.87501853  0.38050037     0.09400
C584        C  0.71661818  0.87569073  0.37992158    -0.17400
C585        C  0.60174822  0.95062619  0.07286344    -0.11300
C586        C  0.60105191  0.97315419  0.07182331    -0.12900
C587        C  0.58663421  0.88779234  0.48739467    -0.11300
C588        C  0.58428225  0.88132590  0.02112152    -0.12900
C589        C  0.72584876  0.87432640  0.10454854    -0.16600
C590        C  0.70328790  0.87340080  0.10434450     0.07500
C591        C  0.67691522  0.87483656  0.10547562     0.09400
C592        C  0.65470613  0.87881543  0.10459204    -0.17400
C593        C  0.27716883  0.06441239  0.38138368    -0.16600
C594        C  0.29976151  0.06413013  0.38093528     0.07500
C595        C  0.32599297  0.06073160  0.38072680     0.09400
C596        C  0.34788273  0.05533031  0.38270713    -0.17400
C597        C  0.41662270  0.04997736  0.46912858    -0.11300
C598        C  0.41708124  0.04978216  0.00093437    -0.12900
C599        C  0.28265662  0.07121903  0.10434112    -0.16600
C600        C  0.30518434  0.07194469  0.10105862     0.07500
C601        C  0.33158432  0.07007311  0.09799691     0.09400
C602        C  0.35350665  0.06517447  0.09396771    -0.17400
C603        C  0.40090489  0.95895600  0.40596100    -0.11300
C604        C  0.40082847  0.98156774  0.40739393    -0.12900
C605        C  0.27393565  0.88231783  0.38858151    -0.16600
C606        C  0.29643325  0.88174260  0.38606774     0.07500
C607        C  0.32272782  0.88332811  0.38287965     0.09400
C608        C  0.34499821  0.88715367  0.38268020    -0.17400
C609        C  0.39827982  0.98651368  0.07137536    -0.11300
C610        C  0.39757395  0.96405849  0.07439172    -0.12900
C611        C  0.40596811  0.89290377  0.01540161    -0.11300
C612        C  0.41378874  0.89352240  0.46824204    -0.12900
C613        C  0.35157391  0.89124520  0.12270760    -0.16600
C614        C  0.32995257  0.88644181  0.12952383     0.07500
C615        C  0.30364908  0.88358995  0.13266897     0.09400
C616        C  0.28101498  0.88309819  0.13366904    -0.17400
C617        C  0.08152595  0.31723181  0.37602643    -0.16600
C618        C  0.08731146  0.29544516  0.37340809     0.07500
C619        C  0.09021341  0.26911215  0.37418998     0.09400
C620        C  0.08984016  0.24648375  0.37530876    -0.17400
C621        C  0.06913243  0.37895679  0.47231326    -0.11300
C622        C  0.07441014  0.38286250  0.00634426    -0.12900
C623        C  0.09202956  0.25300151  0.11463233    -0.16600
C624        C  0.09237919  0.27574175  0.11401268     0.07500
C625        C  0.09037355  0.30231696  0.11262760     0.09400
C626        C  0.08553983  0.32430386  0.10818605    -0.17400
C627        C  0.00418647  0.36300459  0.40614358    -0.11300
C628        C  0.98183261  0.36388992  0.40958705    -0.12900
C629        C  0.90069062  0.32171816  0.39332279    -0.16600
C630        C  0.89482906  0.29989961  0.39008857     0.07500
C631        C  0.89269271  0.27343471  0.38836629     0.09400
C632        C  0.89399361  0.25082952  0.38662561    -0.17400
C633        C  0.98536147  0.36824044  0.07889804    -0.11300
C634        C  0.00786493  0.36855706  0.07698973    -0.12900
C635        C  0.91987632  0.38573884  0.48577931    -0.11300
C636        C  0.92327669  0.38564487  0.01442761    -0.12900
C637        C  0.90947940  0.31720070  0.09876867    -0.16600
C638        C  0.90397984  0.29523937  0.10034125     0.07500
C639        C  0.90099602  0.26888334  0.10105724     0.09400
C640        C  0.90125648  0.24627501  0.10283047    -0.17400
C641        C  0.04269801  0.41930357  0.33871472    -0.14500
C642        C  0.06396585  0.40873980  0.35090858    -0.29700
H643        H  0.02514338  0.40893107  0.33996009     0.14500
H644        H  0.08187556  0.41819168  0.34756664     0.15100
C645        C  0.06317861  0.51066952  0.35045388    -0.14500
C646        C  0.06130231  0.53523076  0.34300168    -0.29700
H647        H  0.07234256  0.50512635  0.37560082     0.14500
H648        H  0.05309629  0.54132559  0.31747461     0.15100
C649        C  0.06308807  0.41722979  0.12402036    -0.14500
C650        C  0.06475719  0.42116204  0.16004714    -0.29700
H651        H  0.05450407  0.43182310  0.10759485     0.14500
H652        H  0.07277069  0.40699144  0.17772403     0.15100
C653        C  0.04824582  0.51467284  0.15933595    -0.14500
C654        C  0.07019427  0.52472201  0.14860190    -0.29700
H655        H  0.03105018  0.52526614  0.15568439     0.14500
H656        H  0.08775201  0.51527733  0.15446711     0.15100
C657        C  0.92208847  0.41154343  0.36102300    -0.14500
C658        C  0.94246796  0.42021639  0.34316526    -0.29700
H659        H  0.90449969  0.42166878  0.35955414     0.14500
H660        H  0.95938380  0.40894078  0.34249119     0.15100
C661        C  0.92383833  0.51207957  0.34622371    -0.14500
C662        C  0.92897185  0.53638386  0.34012105    -0.29700
H663        H  0.91344749  0.50725213  0.37056387     0.14500
H664        H  0.93876298  0.54179095  0.31555229     0.15100
C665        C  0.92585345  0.42664994  0.14587258    -0.14500
C666        C  0.92997966  0.40195138  0.14942801    -0.29700
H667        H  0.91563990  0.43293905  0.12196948     0.14500
H668        H  0.93960153  0.39499564  0.17340850     0.15100
C669        C  0.94673107  0.51754541  0.15816101    -0.14500
C670        C  0.92711254  0.52701319  0.13932839    -0.29700
H671        H  0.96397176  0.52835809  0.16043333     0.14500
H672        H  0.90925858  0.51719394  0.13879671     0.15100
C673        C  0.45822889  0.03591413  0.34405653    -0.14500
C674        C  0.43353187  0.03444674  0.33777410    -0.29700
H675        H  0.46469806  0.04477142  0.36903682     0.14500
H676        H  0.42659788  0.02652083  0.31244305     0.15100
C677        C  0.54814091  0.01564889  0.32724585    -0.14500
C678        C  0.55799110  0.03648837  0.34256937    -0.29700
H679        H  0.55842464  0.99808347  0.32790684     0.14500
H680        H  0.54842570  0.05437391  0.34002040     0.15100
C681        C  0.45160681  0.01907199  0.13491793    -0.14500
C682        C  0.44210461  0.04214965  0.12945532    -0.29700
H683        H  0.44288094  0.00349938  0.12044266     0.14500
H684        H  0.44909414  0.05806841  0.14497284     0.15100
C685        C  0.54564146  0.02418005  0.15400559    -0.14500
C686        C  0.55121360  0.03036110  0.11947325    -0.29700
H687        H  0.56074223  0.02085453  0.17324755     0.14500
H688        H  0.53638935  0.03097363  0.09929946     0.15100
C689        C  0.45653994  0.89656608  0.34342533    -0.14500
C690        C  0.43227702  0.90050628  0.33595572    -0.29700
H691        H  0.46124579  0.88729464  0.36881957     0.14500
H692        H  0.42688767  0.90905919  0.31036049     0.15100
C693        C  0.54887188  0.91361190  0.33823295    -0.14500
C694        C  0.55344560  0.90586724  0.37252100    -0.29700
H695        H  0.56433497  0.91859899  0.32056593     0.14500
H696        H  0.53799408  0.90382498  0.39129391     0.15100
C697        C  0.45232525  0.91086104  0.16085649    -0.14500
C698        C  0.44606998  0.90587760  0.12618398    -0.29700
H699        H  0.43779424  0.91517332  0.18039567     0.14500
H700        H  0.46069383  0.90447567  0.10593831     0.15100
C701        C  0.54487446  0.89824133  0.14604342    -0.14500
C702        C  0.56947729  0.90139952  0.15189637    -0.29700
H703        H  0.53913941  0.88825063  0.12159372     0.14500
H704        H  0.57605338  0.91027295  0.17674655     0.15100
C705        C  0.52582398  0.91067966  0.66531705     0.88400
C706        C  0.50047198  0.90164984  0.65000377    -0.51800
C707        C  0.48004666  0.91221465  0.66586311     0.11400
C708        C  0.48691410  0.93058526  0.69657000     0.22300
C709        C  0.52490319  0.93951549  0.66243453    -0.52500
C710        C  0.50454687  0.94981966  0.67893103     0.11500
C711        C  0.52450431  0.90531116  0.70645085    -0.52100
C712        C  0.50403555  0.91600959  0.72273579     0.12000
H713        H  0.49890528  0.88830438  0.62777485     0.16500
H714        H  0.47036612  0.93925646  0.70975216     0.02300
H715        H  0.53843443  0.95060970  0.64735656     0.16900
H716        H  0.53846502  0.89457101  0.72122833     0.16600
C717        C  0.47304431  0.90798865  0.81543512     0.88400
C718        C  0.49741085  0.90093133  0.83486595    -0.51800
C719        C  0.51827573  0.91325395  0.82256124     0.11400
C720        C  0.51243913  0.93169402  0.79084659     0.22300
C721        C  0.47141773  0.93652978  0.81795051    -0.52500
C722        C  0.49174068  0.94960731  0.80551402     0.11500
C723        C  0.47799029  0.90298329  0.77517552    -0.52100
C724        C  0.49871781  0.91515897  0.76214444     0.12000
H725        H  0.49784206  0.88684123  0.85608263     0.16500
H726        H  0.52918314  0.94158294  0.78014986     0.02300
H727        H  0.45441668  0.94524170  0.82763608     0.16900
H728        H  0.46566147  0.89173434  0.75808822     0.16600
C729        C  0.47160142  0.01157033  0.65744145     0.88400
C730        C  0.49566898  0.02416022  0.64428962    -0.51800
C731        C  0.51681770  0.01713165  0.66286345     0.11400
C732        C  0.51145456  0.99846227  0.69417101     0.22300
C733        C  0.47704608  0.98333653  0.65649629    -0.52500
C734        C  0.49775232  0.97646626  0.67549657     0.11500
C735        C  0.47011160  0.01784112  0.69798809    -0.52100
C736        C  0.49086425  0.01074809  0.71799250     0.12000
H737        H  0.49581469  0.03692329  0.62135501     0.16500
H738        H  0.52853869  0.99256304  0.70905587     0.02300
H739        H  0.46531391  0.96970610  0.64232739     0.16900
H740        H  0.45324458  0.02568261  0.70959249     0.16600
C741        C  0.47477638  0.01986216  0.81958676     0.88400
C742        C  0.47345293  0.02413426  0.77860895    -0.51800
C743        C  0.49127414  0.01138278  0.75899620     0.11400
C744        C  0.50935517  0.99571051  0.78368193     0.22300
C745        C  0.47403952  0.99140504  0.82449530    -0.52500
C746        C  0.49165938  0.97810803  0.80543218     0.11500
C747        C  0.50122761  0.02745148  0.83006314    -0.52100
C748        C  0.51970266  0.01464869  0.81250816     0.12000
H749        H  0.45922722  0.03602708  0.76660453     0.16500
H750        H  0.52417913  0.98543742  0.76898892     0.02300
H751        H  0.46048688  0.98299992  0.84259746     0.16900
H752        H  0.50488597  0.04177513  0.85042302     0.16600
C753        C  0.93793374  0.44753672  0.67146470     0.88400
C754        C  0.96612341  0.44550266  0.66535134    -0.51800
C755        C  0.98056433  0.46369013  0.68168136     0.11400
C756        C  0.96431926  0.48354561  0.70169227     0.22300
C757        C  0.93493571  0.44888885  0.71306077    -0.52500
C758        C  0.94858010  0.46793781  0.72911858     0.11500
C759        C  0.93120205  0.47367726  0.65809920    -0.52100
C760        C  0.94518973  0.49273064  0.67257973     0.12000
H761        H  0.97348818  0.43032633  0.64911224     0.16500
H762        H  0.97523850  0.49893697  0.71458182     0.02300
H763        H  0.92328818  0.43596854  0.72835165     0.16900
H764        H  0.91660196  0.47671126  0.63796408     0.16600
C765        C  0.94059067  0.49184558  0.82808481     0.88400
C766        C  0.93612443  0.49089054  0.78661390    -0.51800
C767        C  0.94927003  0.47215277  0.76941414     0.11400
C768        C  0.96570386  0.45634018  0.79562248     0.22300
C769        C  0.93438784  0.46545416  0.84154813    -0.52500
C770        C  0.94752284  0.44670246  0.82526705     0.11500
C771        C  0.96899954  0.49404917  0.83247695    -0.52100
C772        C  0.98262677  0.47590588  0.81522373     0.12000
H773        H  0.92394443  0.50383769  0.77225770     0.16500
H774        H  0.97592308  0.44106215  0.78173041     0.02300
H775        H  0.92192963  0.46214605  0.86425778     0.16900
H776        H  0.97716210  0.50915247  0.84832734     0.16600
C777        C  0.04963662  0.44153413  0.67409536     0.88400
C778        C  0.05907279  0.46604926  0.65742135    -0.51800
C779        C  0.04726080  0.48713517  0.66980328     0.11400
C780        C  0.02728853  0.48145438  0.69918067     0.22300
C781        C  0.05291256  0.44494193  0.71502644    -0.52500
C782        C  0.04144765  0.46593213  0.72813384     0.11500
C783        C  0.02123733  0.44165751  0.66821875    -0.52100
C784        C  0.00890445  0.46228312  0.68153725     0.12000
H785        H  0.07402957  0.46635062  0.63761299     0.16500
H786        H  0.01817924  0.49848573  0.71025521     0.02300
H787        H  0.06325076  0.43197540  0.73216094     0.16900
H788        H  0.01213979  0.42561708  0.65574314     0.16600
C789        C  0.05282180  0.49482733  0.82196520     0.88400
C790        C  0.06095926  0.46931796  0.83734573    -0.51800
C791        C  0.04753640  0.44942156  0.82399594     0.11400
C792        C  0.02752769  0.45689869  0.79562450     0.22300
C793        C  0.05511387  0.49220022  0.78067750    -0.52500
C794        C  0.04192259  0.47224378  0.76699062     0.11500
C795        C  0.02449511  0.49613376  0.82846166    -0.52100
C796        C  0.01081465  0.47648317  0.81455178     0.12000
H797        H  0.07504726  0.46741721  0.85851901     0.16500
H798        H  0.01733621  0.44055953  0.78406605     0.02300
H799        H  0.06606790  0.50481956  0.76383720     0.16900
H800        H  0.01642190  0.51221025  0.84199106     0.16600
C801        C  0.91507340  0.34339900  0.59780828     0.88400
C802        C  0.94345162  0.34204260  0.59198617    -0.51800
C803        C  0.95429036  0.36473225  0.58557778     0.11400
C804        C  0.93592962  0.38679914  0.58548177     0.22300
C805        C  0.91186560  0.36201952  0.62919441    -0.52500
C806        C  0.92283815  0.38487770  0.62302623     0.11500
C807        C  0.90491318  0.35659786  0.56392381    -0.52100
C808        C  0.91635144  0.37900784  0.55647410     0.12000
H809        H  0.95406223  0.32465070  0.59278543     0.16500
H810        H  0.94498774  0.40527889  0.58031534     0.02300
H811        H  0.90353083  0.35696178  0.65500128     0.16900
H812        H  0.89264980  0.34715292  0.54455902     0.16600
C813        C  0.92185579  0.34455786  0.89739633     0.88400
C814        C  0.91441594  0.35450393  0.93473783    -0.51800
C815        C  0.92612757  0.37633292  0.94434487     0.11400
C816        C  0.94416345  0.38649088  0.91505554     0.22300
C817        C  0.91636346  0.36611806  0.87081241    -0.52500
C818        C  0.92852172  0.38801257  0.87973132     0.11500
C819        C  0.95051296  0.34269226  0.89870218    -0.52100
C820        C  0.96204595  0.36466863  0.90782566     0.12000
H821        H  0.90215115  0.34427680  0.95301731     0.16500
H822        H  0.95381306  0.40429661  0.92261668     0.02300
H823        H  0.90468068  0.36410760  0.84676332     0.16900
H824        H  0.96078985  0.32566620  0.89228731     0.16600
C825        C  0.06950670  0.34473025  0.59447701     0.88400
C826        C  0.07844841  0.35179510  0.55642246    -0.51800
C827        C  0.06716050  0.37264849  0.54277381     0.11400
C828        C  0.04812490  0.38465652  0.56836270     0.22300
C829        C  0.07388681  0.36835122  0.61805413    -0.52500
C830        C  0.06236855  0.38935592  0.60412775     0.11500
C831        C  0.04092415  0.34249688  0.59118728    -0.52100
C832        C  0.02985665  0.36349999  0.57775273     0.12000
H833        H  0.09128755  0.34035562  0.54071190     0.16500
H834        H  0.03869742  0.40149451  0.55692150     0.02300
H835        H  0.08406132  0.36815780  0.64360782     0.16900
H836        H  0.03031053  0.32611817  0.59987472     0.16600
C837        C  0.07743542  0.34598605  0.88705351     0.88400
C838        C  0.04880647  0.34416973  0.88950162    -0.51800
C839        C  0.03778092  0.36578948  0.90061758     0.11400
C840        C  0.05605793  0.38734980  0.90817362     0.22300
C841        C  0.08252284  0.36834718  0.86157690    -0.52500
C842        C  0.07087657  0.39001485  0.87256175     0.11500
C843        C  0.08597698  0.35483272  0.92461891    -0.52100
C844        C  0.07469908  0.37636462  0.93584135     0.12000
H845        H  0.03819912  0.32719082  0.88340092     0.16500
H846        H  0.04680531  0.40489719  0.91738656     0.02300
H847        H  0.09339203  0.36701057  0.83682687     0.16900
H848        H  0.09821004  0.34385569  0.94209739     0.16600
C849        C  0.37932197  0.89648377  0.59051935     0.88400
C850        C  0.38657759  0.88666918  0.55287019    -0.51800
C851        C  0.40727014  0.89803724  0.53873958     0.11400
C852        C  0.41896188  0.91806340  0.56368052     0.22300
C853        C  0.40291885  0.89322962  0.61442896    -0.52500
C854        C  0.42378557  0.90467069  0.60009333     0.11500
C855        C  0.37666963  0.92489991  0.58582614    -0.52100
C856        C  0.39739854  0.93612376  0.57191698     0.12000
H857        H  0.37538087  0.87309766  0.53775715     0.16500
H858        H  0.43572259  0.92749700  0.55208698     0.02300
H859        H  0.40313256  0.88294360  0.63984487     0.16900
H860        H  0.35996280  0.93531038  0.59327098     0.16600
C861        C  0.37441463  0.89098212  0.89156396     0.88400
C862        C  0.37241107  0.91962802  0.89508718    -0.51800
C863        C  0.39319843  0.93060467  0.90963982     0.11400
C864        C  0.41404451  0.91211444  0.91947569     0.22300
C865        C  0.39824788  0.88661234  0.86890793    -0.52500
C866        C  0.41916073  0.89795846  0.88369991     0.11500
C867        C  0.38076664  0.88173893  0.92978350    -0.52100
C868        C  0.40140175  0.89290937  0.94446082     0.12000
H869        H  0.35609326  0.93031312  0.88652848     0.16500
H870        H  0.43075919  0.92140554  0.93174020     0.02300
H871        H  0.39826280  0.87649230  0.84335233     0.16900
H872        H  0.36881606  0.86901749  0.94501919     0.16600
C873        C  0.37498388  0.05169072  0.58446034     0.88400
C874        C  0.37314797  0.02307193  0.57977113    -0.51800
C875        C  0.39519507  0.01214714  0.57047137     0.11400
C876        C  0.41708163  0.03051866  0.56672080     0.22300
C877        C  0.39593128  0.05573807  0.61278838    -0.52500
C878        C  0.41794615  0.04414305  0.60379735     0.11500
C879        C  0.38575227  0.06124015  0.54856780    -0.52100
C880        C  0.40773579  0.05000941  0.53906539     0.12000
H881        H  0.35602217  0.01235738  0.58397654     0.16500
H882        H  0.43494649  0.02134250  0.55891954     0.02300
H883        H  0.39307210  0.06512466  0.63859884     0.16900
H884        H  0.37568743  0.07392261  0.53063392     0.16600
C885        C  0.37116749  0.04499553  0.89114688     0.88400
C886        C  0.38482604  0.05745422  0.92301584    -0.51800
C887        C  0.40733995  0.04678350  0.93127889     0.11400
C888        C  0.41458456  0.02516435  0.90550060     0.22300
C889        C  0.38932452  0.04618137  0.85906004    -0.52500
C890        C  0.41220084  0.03578035  0.86649641     0.11500
C891        C  0.36980325  0.01704464  0.90097648    -0.52100
C892        C  0.39254650  0.00666721  0.90819054     0.12000
H893        H  0.37595120  0.07129137  0.94041534     0.16500
H894        H  0.43303769  0.01649166  0.91161650     0.02300
H895        H  0.38410441  0.05312135  0.83238529     0.16900
H896        H  0.35248194  0.00621045  0.90096799     0.16600
C897        C  0.63141751  0.89011342  0.59662657     0.88400
C898        C  0.63126733  0.91786130  0.58538913    -0.51800
C899        C  0.60792682  0.92681812  0.57823491     0.11400
C900        C  0.58696744  0.90745184  0.58268203     0.22300
C901        C  0.61379114  0.88879654  0.62936033    -0.52500
C902        C  0.59037388  0.89794855  0.62209458     0.11500
C903        C  0.61788688  0.87629360  0.56568206    -0.52100
C904        C  0.59482911  0.88585864  0.55746611     0.12000
H905        H  0.64802908  0.92948591  0.58390206     0.16500
H906        H  0.56803207  0.91507447  0.57668755     0.02300
H907        H  0.61960943  0.88249389  0.65610232     0.16900
H908        H  0.62745154  0.86307473  0.54804183     0.16600
C909        C  0.61636864  0.88410829  0.89855872     0.88400
C910        C  0.60802733  0.87252896  0.93465945    -0.51800
C911        C  0.58795613  0.88423778  0.94993274     0.11400
C912        C  0.57771717  0.90616272  0.92716036     0.22300
C913        C  0.59293724  0.88369924  0.87367961    -0.52500
C914        C  0.57262013  0.89551337  0.88887178     0.11500
C915        C  0.62059857  0.91190615  0.90696495    -0.52100
C916        C  0.60040309  0.92336428  0.92165834     0.12000
H917        H  0.61868126  0.85809749  0.94868787     0.16500
H918        H  0.56138655  0.91582036  0.93947287     0.02300
H919        H  0.59252761  0.87530582  0.84683348     0.16900
H920        H  0.63771086  0.92199814  0.90023512     0.16600
C921        C  0.61697993  0.04230712  0.59077589     0.88400
C922        C  0.60884195  0.05224162  0.55352894    -0.51800
C923        C  0.58885428  0.03976762  0.53894685     0.11400
C924        C  0.57870602  0.01856622  0.56294406     0.22300
C925        C  0.59329305  0.04355609  0.61478038    -0.52500
C926        C  0.57314783  0.03094678  0.59981357     0.11500
C927        C  0.62143833  0.01423888  0.58502117    -0.52100
C928        C  0.60142575  0.00189486  0.57066964     0.12000
H929        H  0.61897447  0.06680562  0.53898649     0.16500
H930        H  0.56258527  0.00818451  0.55083575     0.02300
H931        H  0.59250124  0.05335343  0.64058661     0.16900
H932        H  0.63869362  0.00476271  0.59269132     0.16600
C933        C  0.62136721  0.03542688  0.88463688     0.88400
C934        C  0.62410075  0.00778920  0.89568556    -0.51800
C935        C  0.60312494  0.99817177  0.91132260     0.11400
C936        C  0.58151854  0.01664048  0.91451562     0.22300
C937        C  0.59821103  0.03588436  0.85938641    -0.52500
C938        C  0.57730253  0.02573433  0.87531530     0.11500
C939        C  0.61347310  0.04897720  0.91952016    -0.52100
C940        C  0.59277305  0.03889692  0.93542285     0.12000
H941        H  0.64089355  0.99675336  0.89110420     0.16500
H942        H  0.56457666  0.00844670  0.92746797     0.02300
H943        H  0.59832187  0.04339156  0.83202612     0.16900
H944        H  0.62494562  0.06328433  0.93266567     0.16600
In945      In  0.90989854  0.17129949  0.62176245     1.36900
C946        C  0.90130215  0.21998599  0.61055229     0.79500
O947        O  0.88780179  0.17146439  0.67340911    -0.58900
O948        O  0.92357654  0.15403434  0.67367443    -0.49800
C949        C  0.87733400  0.13791316  0.59403098     0.72200
O950        O  0.87353638  0.16123362  0.59306120    -0.44700
C951        C  0.95844003  0.16914264  0.60451694     0.76900
O952        O  0.90466176  0.20486540  0.58460820    -0.56500
O953        O  0.95029996  0.17978984  0.63247974    -0.46600
O954        O  0.90160385  0.21016522  0.64151765    -0.53000
C955        C  0.90459269  0.16050680  0.69144167     0.87100
O956        O  0.89840003  0.13174222  0.60660370    -0.54900
O957        O  0.94172194  0.15974840  0.58417990    -0.58200
In958      In  0.78813904  0.05302989  0.61534176     1.36900
C959        C  0.79806838  0.06123378  0.68470409     0.79500
O960        O  0.79333858  0.01207639  0.62571185    -0.58900
O961        O  0.79474393  0.02399175  0.57083568    -0.49800
C962        C  0.73829650  0.05839651  0.60857398     0.72200
O963        O  0.74900845  0.05257518  0.63772247    -0.44700
C964        C  0.82261338  0.08535501  0.59069331     0.76900
O965        O  0.78896881  0.07799861  0.66453379    -0.56500
O966        O  0.82779316  0.06328958  0.60016622    -0.46600
O967        O  0.80248019  0.04057825  0.66941835    -0.53000
C968        C  0.79644059  0.00604276  0.59308719     0.87100
O969        O  0.75289062  0.06127237  0.58204240    -0.54900
O970        O  0.79957470  0.09043735  0.59098893    -0.58200
In971      In  0.91057758  0.17348802  0.87041800     1.36900
C972        C  0.90518027  0.16234702  0.80077896     0.79500
O973        O  0.95171387  0.17609342  0.86011016    -0.58900
O974        O  0.94055577  0.16720650  0.91378098    -0.49800
C975        C  0.90256210  0.22250457  0.88056027     0.72200
O976        O  0.90785892  0.21307287  0.85033498    -0.44700
C977        C  0.87850934  0.13856691  0.89453479     0.76900
O978        O  0.88975762  0.17584227  0.81756222    -0.56500
O979        O  0.90129533  0.13407551  0.88895303    -0.46600
O980        O  0.92303253  0.15399875  0.81962626    -0.53000
C981        C  0.95837447  0.17089859  0.89196986     0.87100
O982        O  0.90086723  0.20690552  0.90622699    -0.54900
O983        O  0.87242966  0.16122228  0.89051341    -0.58200
In984      In  0.79228075  0.05194472  0.86284512     1.36900
C985        C  0.80072611  0.06144281  0.79367609     0.79500
O986        O  0.80296071  0.08853805  0.89044670    -0.58900
O987        O  0.83166056  0.06209270  0.88083175    -0.49800
C988        C  0.74247193  0.05581245  0.86562344     0.72200
O989        O  0.75400325  0.04851549  0.83795774    -0.44700
C990        C  0.79631074  0.00431495  0.88459151     0.76900
O991        O  0.78958798  0.07685610  0.81388775    -0.56500
O992        O  0.79000916  0.02156180  0.90619902    -0.46600
O993        O  0.80839485  0.04179244  0.80903855    -0.53000
C994        C  0.82602865  0.08377677  0.89153582     0.87100
O995        O  0.75627874  0.06142839  0.89238505    -0.54900
O996        O  0.80161717  0.01161147  0.85315314    -0.58200
In997      In  0.91292100  0.76636228  0.86484674     1.36900
C998        C  0.91053239  0.77635634  0.79450624     0.79500
O999        O  0.87298006  0.77502959  0.88076821    -0.58900
O1000       O  0.89986415  0.80413243  0.88582505    -0.49800
C1001       C  0.90574234  0.71831014  0.88197849     0.72200
O1002       O  0.90563986  0.72624041  0.84987715    -0.44700
C1003       C  0.96151908  0.76910059  0.88214556     0.76900
O1004       O  0.89899923  0.75823285  0.80870437    -0.56500
O1005       O  0.94471139  0.77504583  0.90453996    -0.46600
O1006       O  0.92253467  0.79016213  0.81634042    -0.53000
C1007       C  0.87719598  0.79773943  0.88801689     0.87100
O1008       O  0.90880250  0.73501326  0.90596703    -0.54900
O1009       O  0.95350007  0.76204046  0.85168845    -0.58200
In1010     In  0.78695282  0.88137769  0.86282181     1.36900
C1011       C  0.79819985  0.87513452  0.79365050     0.79500
O1012       O  0.78410133  0.92267324  0.85322667    -0.58900
O1013       O  0.79641327  0.91114127  0.90539703    -0.49800
C1014       C  0.73778745  0.87328678  0.87212484     0.72200
O1015       O  0.74745523  0.87784323  0.84181911    -0.44700
C1016       C  0.82157072  0.84919588  0.88725596     0.76900
O1017       O  0.78583809  0.85901531  0.81111423    -0.56500
O1018       O  0.82687622  0.87070296  0.87547558    -0.46600
O1019       O  0.80486384  0.89424094  0.81141789    -0.53000
C1020       C  0.79161339  0.92913625  0.88422118     0.87100
O1021       O  0.75318452  0.87262135  0.89824815    -0.54900
O1022       O  0.79842855  0.84459060  0.88915110    -0.58200
In1023     In  0.92384081  0.76382329  0.61609250     1.36900
C1024       C  0.91638517  0.77486625  0.68540583     0.79500
O1025       O  0.96503394  0.76927216  0.62351214    -0.58900
O1026       O  0.95223972  0.76248761  0.56980085    -0.49800
C1027       C  0.91629197  0.71412328  0.61282741     0.72200
O1028       O  0.92697283  0.72484348  0.63911192    -0.44700
C1029       C  0.89287140  0.79894909  0.58974325     0.76900
O1030       O  0.90030645  0.76344929  0.66640610    -0.56500
O1031       O  0.91534847  0.80353452  0.59794072    -0.46600
O1032       O  0.93609786  0.78104433  0.66900364    -0.53000
C1033       C  0.97070116  0.76611363  0.59079629     0.87100
O1034       O  0.90947402  0.72865966  0.58764606    -0.54900
O1035       O  0.88679995  0.77613657  0.59185398    -0.58200
In1036     In  0.80440743  0.88442502  0.61467177     1.36900
C1037       C  0.80761344  0.87579747  0.68515828     0.79500
O1038       O  0.81687281  0.84814393  0.58820346    -0.58900
O1039       O  0.84481321  0.87471553  0.60229896    -0.49800
C1040       C  0.75515474  0.87895628  0.60624776     0.72200
O1041       O  0.76496889  0.88911149  0.63366721    -0.44700
C1042       C  0.80760561  0.93175110  0.59152722     0.76900
O1043       O  0.79841932  0.85994405  0.66343170    -0.56500
O1044       O  0.80074634  0.91416431  0.57071156    -0.46600
O1045       O  0.81620070  0.89544879  0.67082095    -0.53000
C1046       C  0.83989099  0.85312113  0.59026546     0.87100
O1047       O  0.77042685  0.87162888  0.58243455    -0.54900
O1048       O  0.81471862  0.92484582  0.62248199    -0.58200
In1049     In  0.08141258  0.17352645  0.87287365     1.36900
C1050       C  0.08866585  0.22314345  0.87811914     0.79500
O1051       O  0.10713573  0.17405722  0.82490242    -0.58900
O1052       O  0.07031376  0.15897469  0.81839847    -0.49800
C1053       C  0.11205107  0.13815566  0.89881646     0.72200
O1054       O  0.11706668  0.16122404  0.90120460    -0.44700
C1055       C  0.03354347  0.16942120  0.89322579     0.76900
O1056       O  0.09134699  0.20875608  0.90504813    -0.56500
O1057       O  0.04066350  0.16823900  0.86086443    -0.46600
O1058       O  0.08219349  0.21232201  0.84927407    -0.53000
C1059       C  0.09098802  0.16439266  0.80401828     0.87100
O1060       O  0.09059443  0.13326486  0.88638291    -0.54900
O1061       O  0.05098726  0.17208066  0.91622030    -0.58200
In1062     In  0.19946659  0.05252282  0.87113813     1.36900
C1063       C  0.19103108  0.05996481  0.80112892     0.78700
O1064       O  0.19844405  0.01112734  0.86162863    -0.58900
O1065       O  0.19535256  0.02336413  0.91615637    -0.49800
C1066       C  0.24851392  0.05986196  0.87996490     0.72200
O1067       O  0.23891543  0.05183813  0.85100375    -0.44700
C1068       C  0.16497816  0.08428638  0.89629907     0.76900
O1069       O  0.20324901  0.07536288  0.82031744    -0.56500
O1070       O  0.15956764  0.06261159  0.88496006    -0.46600
O1071       O  0.18225172  0.04131959  0.81787055    -0.53000
C1072       C  0.19640003  0.00508941  0.89438765     0.87100
O1073       O  0.23313096  0.06428455  0.90503733    -0.54900
O1074       O  0.18805604  0.08925391  0.89688884    -0.58200
In1075     In  0.08234167  0.17373052  0.62640072     1.36900
C1076       C  0.09187096  0.16423575  0.69532243     0.79500
O1077       O  0.04142129  0.17277986  0.63960430    -0.58900
O1078       O  0.05135831  0.16766439  0.58446068    -0.49800
C1079       C  0.08728997  0.22316335  0.61716678     0.72200
O1080       O  0.08170053  0.21327078  0.64697484    -0.44700
C1081       C  0.11519336  0.14047291  0.60004443     0.76900
O1082       O  0.10461412  0.17970912  0.67729942    -0.56500
O1083       O  0.09317039  0.13458212  0.60872710    -0.46600
O1084       O  0.07480527  0.15298049  0.67796544    -0.53000
C1085       C  0.03404552  0.16927727  0.60755951     0.87100
O1086       O  0.09061227  0.20784455  0.59142019    -0.54900
O1087       O  0.11994871  0.16363032  0.60206388    -0.58200
In1088     In  0.20410828  0.05504549  0.62203759     1.36900
C1089       C  0.19364450  0.06095608  0.69167250     0.79500
O1090       O  0.19215419  0.09355597  0.60261238    -0.58900
O1091       O  0.16495185  0.06458068  0.60201499    -0.49800
C1092       C  0.25273816  0.06370964  0.60996694     0.72200
O1093       O  0.24406121  0.05872454  0.64077893    -0.44700
C1094       C  0.20268141  0.00635441  0.60352796     0.76900
O1095       O  0.20899974  0.07487708  0.67531779    -0.56500
O1096       O  0.19995085  0.02352588  0.58022391    -0.46600
O1097       O  0.18311591  0.04442864  0.67237679    -0.53000
C1098       C  0.16957560  0.08757383  0.59760208     0.87100
O1099       O  0.23658386  0.06461794  0.58484147    -0.54900
O1100       O  0.20585177  0.01406961  0.63545627    -0.58200
In1101     In  0.20350859  0.88359970  0.86915057     1.36900
C1102       C  0.16922275  0.85062780  0.89230323     0.79500
O1103       O  0.19981021  0.91203416  0.91538051    -0.58900
O1104       O  0.20010312  0.92486968  0.86094739    -0.49800
C1105       C  0.25295976  0.87690989  0.87473063     0.72200
O1106       O  0.23843878  0.87264354  0.90096238    -0.44700
C1107       C  0.19401902  0.87743997  0.79930572     0.76900
O1108       O  0.19235928  0.84614829  0.89331659    -0.56500
O1109       O  0.18669516  0.89641600  0.81664127    -0.46600
O1110       O  0.16370067  0.87250118  0.88228910    -0.53000
C1111       C  0.19882533  0.93049852  0.89394815     0.87100
O1112       O  0.24235382  0.88470173  0.84646908    -0.54900
O1113       O  0.20552216  0.86121179  0.81776344    -0.58200
In1114     In  0.08510273  0.76061124  0.86405959     1.36900
C1115       C  0.09594164  0.76712370  0.79483427     0.79500
O1116       O  0.04420831  0.76078174  0.85029714    -0.58900
O1117       O  0.05426019  0.76916990  0.90471617    -0.49800
C1118       C  0.09075955  0.71161387  0.87725077     0.72200
O1119       O  0.08627081  0.72034773  0.84628099    -0.44700
C1120       C  0.11641880  0.79600043  0.88913891     0.76900
O1121       O  0.11028277  0.75540014  0.81608377    -0.56500
O1122       O  0.09565013  0.80101391  0.87463905    -0.46600
O1123       O  0.07647018  0.77602397  0.80903559    -0.53000
C1124       C  0.03693130  0.76638410  0.88162661     0.87100
O1125       O  0.09252827  0.72786350  0.90212270    -0.54900
O1126       O  0.12062968  0.77289599  0.89309996    -0.58200
In1127     In  0.20842225  0.88194701  0.62125308     1.36900
C1128       C  0.19639745  0.87632963  0.69020894     0.79500
O1129       O  0.20190409  0.92243929  0.63485024    -0.58900
O1130       O  0.20778447  0.91361594  0.57946557    -0.49800
C1131       C  0.25802186  0.87756458  0.61394079     0.72200
O1132       O  0.24767705  0.88363507  0.64318664    -0.44700
C1133       C  0.17771172  0.84627010  0.59401327     0.76900
O1134       O  0.21479156  0.86534886  0.67609160    -0.56500
O1135       O  0.17295167  0.86935481  0.59160336    -0.46600
O1136       O  0.18350183  0.88960892  0.66892151    -0.53000
C1137       C  0.20401616  0.93045430  0.60297133     0.87100
O1138       O  0.24309571  0.87348538  0.58785686    -0.54900
O1139       O  0.19879018  0.84150783  0.60766118    -0.58200
In1140     In  0.09194372  0.75726356  0.61576365     1.36900
C1141       C  0.09509602  0.70709411  0.61284884     0.79500
O1142       O  0.11490431  0.75406211  0.66687216    -0.58900
O1143       O  0.08028877  0.77372659  0.66880575    -0.49800
C1144       C  0.12514836  0.79115307  0.59073179     0.72200
O1145       O  0.13001263  0.76807409  0.59272555    -0.44700
C1146       C  0.04529357  0.76323114  0.59035144     0.76900
O1147       O  0.10251012  0.72092988  0.58718675    -0.56500
O1148       O  0.05195791  0.76853183  0.62218836    -0.46600
O1149       O  0.08604827  0.71876294  0.63936013    -0.53000
C1150       C  0.09919190  0.76580588  0.68575151     0.87100
O1151       O  0.10288220  0.79657225  0.59832276    -0.54900
O1152       O  0.06273827  0.75555871  0.57014651    -0.58200
C1153       C  0.92622375  0.59141697  0.59225145     0.88400
C1154       C  0.91305889  0.58262429  0.55729089    -0.51800
C1155       C  0.92282839  0.56117643  0.54289227     0.11400
C1156       C  0.94446950  0.55019771  0.56537175     0.22300
C1157       C  0.92484484  0.56902009  0.61872977    -0.52500
C1158       C  0.93469918  0.54738535  0.60445946     0.11500
C1159       C  0.95398371  0.59331065  0.58221867    -0.52100
C1160       C  0.96338099  0.57167732  0.56830713     0.12000
H1161       H  0.89912474  0.59384509  0.54315981     0.16500
H1162       H  0.95248760  0.53269359  0.55380902     0.02300
H1163       H  0.91712861  0.57017803  0.64587019     0.16900
H1164       H  0.96543660  0.60993503  0.58700689     0.16600
C1165       C  0.92099951  0.59540666  0.90420495     0.88400
C1166       C  0.94941810  0.59583773  0.91073575    -0.51800
C1167       C  0.95940057  0.57269638  0.91654174     0.11400
C1168       C  0.94017620  0.55122627  0.91553197     0.22300
C1169       C  0.91724671  0.57739379  0.87217235    -0.52500
C1170       C  0.92729977  0.55414600  0.87782913     0.11500
C1171       C  0.91018548  0.58198894  0.93737378    -0.52100
C1172       C  0.92074654  0.55912491  0.94428417     0.12000
H1173       H  0.96068415  0.61289674  0.91045876     0.16500
H1174       H  0.94850104  0.53239886  0.92026404     0.02300
H1175       H  0.90910970  0.58305869  0.84640295     0.16900
H1176       H  0.89817370  0.59147811  0.95676188     0.16600
C1177       C  0.07707482  0.58495661  0.59425718     0.88400
C1178       C  0.04935113  0.58867249  0.58502398    -0.51800
C1179       C  0.03823457  0.56795110  0.57060306     0.11400
C1180       C  0.05554197  0.54535791  0.56652459     0.22300
C1181       C  0.07746361  0.56204803  0.61990233    -0.52500
C1182       C  0.06599126  0.54125344  0.60505184     0.11500
C1183       C  0.08893783  0.57594458  0.55867573    -0.52100
C1184       C  0.07743151  0.55536063  0.54389647     0.12000
H1185       H  0.03924305  0.60601233  0.59008061     0.16500
H1186       H  0.04615442  0.52854794  0.55464019     0.02300
H1187       H  0.08578919  0.56223867  0.64684181     0.16900
H1188       H  0.10316688  0.58664762  0.54436440     0.16600
C1189       C  0.07488108  0.58997718  0.90469428     0.88400
C1190       C  0.08415566  0.58235828  0.94245585    -0.51800
C1191       C  0.07281883  0.56134249  0.95561823     0.11400
C1192       C  0.05338357  0.54970406  0.92976086     0.22300
C1193       C  0.07882375  0.56669239  0.88039127    -0.52500
C1194       C  0.06729780  0.54547178  0.89374132     0.11500
C1195       C  0.04636875  0.59220579  0.90827990    -0.52100
C1196       C  0.03519496  0.57108420  0.92120064     0.12000
H1197       H  0.09725839  0.59356042  0.95839854     0.16500
H1198       H  0.04391860  0.53271532  0.94073692     0.02300
H1199       H  0.08879586  0.56725669  0.85482330     0.16900
H1200       H  0.03586059  0.60882647  0.90049605     0.16600
C1201       C  0.07919942  0.55034773  0.50548536    -0.11300
C1202       C  0.07505765  0.55464524  0.99332693    -0.12900
C1203       C  0.98587221  0.56919178  0.92169793    -0.11300
C1204       C  0.00839306  0.56879858  0.92331002    -0.12900
C1205       C  0.01196883  0.56717940  0.56318347    -0.11300
C1206       C  0.98958445  0.56846951  0.56237933    -0.12900
C1207       C  0.91913846  0.55514985  0.50488672    -0.11300
C1208       C  0.92235015  0.55113533  0.98188461    -0.12900
C1209       C  0.09646283  0.67998726  0.61227211    -0.16600
C1210       C  0.09603364  0.65723486  0.61286370     0.07500
C1211       C  0.09326944  0.63067772  0.61211611     0.09400
C1212       C  0.08807544  0.60872450  0.60759719    -0.17400
C1213       C  0.14402215  0.81019078  0.58404287    -0.11300
C1214       C  0.15969870  0.82675868  0.58511042    -0.12900
C1215       C  0.09311966  0.68497696  0.88320434    -0.16600
C1216       C  0.09332073  0.66232426  0.88555798     0.07500
C1217       C  0.09094537  0.63584851  0.88796508     0.09400
C1218       C  0.08584905  0.61393930  0.89259091    -0.17400
C1219       C  0.10163884  0.76861517  0.72418623    -0.11300
C1220       C  0.10058839  0.76900279  0.75676117    -0.12900
C1221       C  0.19161731  0.87495738  0.72828120    -0.11300
C1222       C  0.19097072  0.87526691  0.76087858    -0.12900
C1223       C  0.13467210  0.81521448  0.89762195    -0.11300
C1224       C  0.15045788  0.83158511  0.89865529    -0.12900
C1225       C  0.20235433  0.97978923  0.59530507    -0.11300
C1226       C  0.20278159  0.95702411  0.59512266    -0.12900
C1227       C  0.15023034  0.10599229  0.59093355    -0.11300
C1228       C  0.13402559  0.12188966  0.59172115    -0.12900
C1229       C  0.19586562  0.97905677  0.90501230    -0.11300
C1230       C  0.19670574  0.95636219  0.90502229    -0.12900
C1231       C  0.18959254  0.06283091  0.72995616    -0.11300
C1232       C  0.18875146  0.06256294  0.76258579    -0.12900
C1233       C  0.09504240  0.16122394  0.76605138    -0.11300
C1234       C  0.09526382  0.16109504  0.73347668    -0.12900
C1235       C  0.14613098  0.10266276  0.90492526    -0.11300
C1236       C  0.13027908  0.11883262  0.90592565    -0.12900
C1237       C  0.91694404  0.61583607  0.60533672    -0.16600
C1238       C  0.91289120  0.63792835  0.61024122     0.07500
C1239       C  0.91154989  0.66453013  0.61175992     0.09400
C1240       C  0.91267239  0.68724438  0.61181819    -0.17400
C1241       C  0.01929649  0.76491054  0.57956099    -0.11300
C1242       C  0.99661884  0.76583918  0.57970223    -0.12900
C1243       C  0.87488773  0.81852378  0.58228519    -0.11300
C1244       C  0.85906522  0.83478860  0.58259876    -0.12900
C1245       C  0.80360897  0.87251412  0.75590187    -0.11300
C1246       C  0.80668850  0.87265463  0.72362002    -0.12900
C1247       C  0.91119177  0.62094966  0.89888533    -0.16600
C1248       C  0.90630399  0.64302070  0.89634812     0.07500
C1249       C  0.90363896  0.66940485  0.89369132     0.09400
C1250       C  0.90352463  0.69194686  0.88998073    -0.17400
C1251       C  0.98801750  0.77001584  0.88981815    -0.11300
C1252       C  0.01066181  0.76912862  0.88957969    -0.12900
C1253       C  0.91304175  0.77922327  0.72344332    -0.11300
C1254       C  0.91119698  0.77980517  0.75598213    -0.12900
C1255       C  0.84065303  0.83075996  0.89487656    -0.11300
C1256       C  0.85737319  0.81544548  0.89505590    -0.12900
C1257       C  0.79468007  0.95529167  0.89348702    -0.11300
C1258       C  0.79617493  0.97797175  0.89359484    -0.12900
C1259       C  0.98456009  0.16918291  0.90157956    -0.11300
C1260       C  0.00723639  0.16865316  0.90202635    -0.12900
C1261       C  0.84470492  0.10247386  0.90064287    -0.11300
C1262       C  0.86039598  0.11896062  0.90148138    -0.12900
C1263       C  0.80545466  0.95800908  0.58261346    -0.11300
C1264       C  0.80170696  0.98040423  0.58312170    -0.12900
C1265       C  0.80280258  0.06491330  0.75537336    -0.11300
C1266       C  0.80189510  0.06475855  0.72278131    -0.12900
C1267       C  0.00768434  0.16765925  0.59882471    -0.11300
C1268       C  0.98500245  0.16759333  0.59775002    -0.12900
C1269       C  0.90305200  0.15736034  0.72990678    -0.11300
C1270       C  0.90329602  0.15802346  0.76253434    -0.12900
C1271       C  0.85827318  0.11961394  0.58482712    -0.11300
C1272       C  0.84179483  0.10391686  0.58375915    -0.12900
C1273       C  0.71551876  0.05685739  0.86631519    -0.16600
C1274       C  0.69291027  0.05552280  0.86544055     0.07500
C1275       C  0.66668039  0.05137772  0.86576122     0.09400
C1276       C  0.64503537  0.04549043  0.87032323    -0.17400
C1277       C  0.58840025  0.04227673  0.97368259    -0.11300
C1278       C  0.58170002  0.04312121  0.50147242    -0.12900
C1279       C  0.64020552  0.05445057  0.60388167    -0.16600
C1280       C  0.66215956  0.05980590  0.60744720     0.07500
C1281       C  0.68871547  0.06185553  0.60708295     0.09400
C1282       C  0.71140152  0.06118988  0.60640327    -0.17400
C1283       C  0.60087266  0.97236573  0.92135116    -0.11300
C1284       C  0.59964056  0.95005445  0.92500040    -0.12900
C1285       C  0.63982071  0.87314497  0.88470128    -0.16600
C1286       C  0.66183360  0.86899035  0.87956436     0.07500
C1287       C  0.68842382  0.86817427  0.87748454     0.09400
C1288       C  0.71107374  0.86964633  0.87610491    -0.17400
C1289       C  0.60343238  0.95272168  0.57012707    -0.11300
C1290       C  0.60127434  0.97507918  0.56758090    -0.12900
C1291       C  0.58299174  0.88161280  0.98834570    -0.11300
C1292       C  0.58690539  0.88537422  0.51994478    -0.12900
C1293       C  0.72843788  0.87618973  0.60295723    -0.16600
C1294       C  0.70582442  0.87558254  0.60291874     0.07500
C1295       C  0.67939048  0.87723140  0.60370014     0.09400
C1296       C  0.65715336  0.88127285  0.60269374    -0.17400
C1297       C  0.27514793  0.06306844  0.88369172    -0.16600
C1298       C  0.29775887  0.06336862  0.88399031     0.07500
C1299       C  0.32408870  0.06062362  0.88345445     0.09400
C1300       C  0.34604250  0.05531924  0.88472045    -0.17400
C1301       C  0.41651109  0.04878765  0.96817305    -0.11300
C1302       C  0.41613809  0.05068696  0.50186716    -0.12900
C1303       C  0.27925000  0.06732652  0.60424678    -0.16600
C1304       C  0.30180772  0.06837177  0.60117122     0.07500
C1305       C  0.32824582  0.06680691  0.59771941     0.09400
C1306       C  0.35023924  0.06227816  0.59332038    -0.17400
C1307       C  0.39543741  0.95742342  0.91349181    -0.11300
C1308       C  0.39535880  0.98003817  0.91324323    -0.12900
C1309       C  0.27970588  0.87360391  0.87635358    -0.16600
C1310       C  0.30232034  0.87288090  0.87529789     0.07500
C1311       C  0.32876999  0.87501034  0.87468832     0.09400
C1312       C  0.35071921  0.88011193  0.87829510    -0.17400
C1313       C  0.39787485  0.98542295  0.56719835    -0.11300
C1314       C  0.39880045  0.96287109  0.56753491    -0.12900
C1315       C  0.41378809  0.89502378  0.50095535    -0.11300
C1316       C  0.40627567  0.89161088  0.98281040    -0.12900
C1317       C  0.35570880  0.88534043  0.60357503    -0.16600
C1318       C  0.33396939  0.87980536  0.60844262     0.07500
C1319       C  0.30758581  0.87663234  0.61016808     0.09400
C1320       C  0.28492091  0.87604538  0.61096031    -0.17400
C1321       C  0.08815118  0.32143258  0.87747603    -0.16600
C1322       C  0.09253136  0.29918765  0.87596703     0.07500
C1323       C  0.09368534  0.27262153  0.87795649     0.09400
C1324       C  0.09233316  0.24996679  0.87955446    -0.17400
C1325       C  0.07512972  0.38310831  0.97368188    -0.11300
C1326       C  0.06897857  0.37896246  0.50495823    -0.12900
C1327       C  0.08914842  0.25002964  0.61336753    -0.16600
C1328       C  0.08882599  0.27272667  0.61262380     0.07500
C1329       C  0.08589771  0.29915374  0.61145248     0.09400
C1330       C  0.08049859  0.32097512  0.60710887    -0.17400
C1331       C  0.01121374  0.36766450  0.90533112    -0.11300
C1332       C  0.98878711  0.36725946  0.90775463    -0.12900
C1333       C  0.91019439  0.32009522  0.88901367    -0.16600
C1334       C  0.90393634  0.29831190  0.88643610     0.07500
C1335       C  0.90016324  0.27194701  0.88588891     0.09400
C1336       C  0.89976645  0.24924523  0.88497151    -0.17400
C1337       C  0.98073103  0.36709428  0.57962536    -0.11300
C1338       C  0.00314388  0.36638537  0.57692796    -0.12900
C1339       C  0.92500306  0.38505072  0.98164810    -0.11300
C1340       C  0.91830773  0.38639755  0.51860151    -0.12900
C1341       C  0.90457176  0.31808781  0.60332699    -0.16600
C1342       C  0.89984202  0.29589065  0.60470957     0.07500
C1343       C  0.89782002  0.26935010  0.60487113     0.09400
C1344       C  0.89834155  0.24666632  0.60589600    -0.17400
C1345       C  0.04936571  0.42369551  0.83935669    -0.14500
C1346       C  0.07098831  0.41368757  0.85147829    -0.29700
H1347       H  0.03210652  0.41293004  0.84171883     0.14500
H1348       H  0.08871195  0.42325114  0.84701337     0.15100
C1349       C  0.06604420  0.51734395  0.83882466    -0.14500
C1350       C  0.06430117  0.52098801  0.87490774    -0.29700
H1351       H  0.07381510  0.53178482  0.82136982     0.14500
H1352       H  0.05594173  0.50608897  0.89102083     0.15100
C1353       C  0.05953322  0.41402154  0.62223258    -0.14500
C1354       C  0.06146328  0.41812928  0.65817038    -0.29700
H1355       H  0.05146970  0.42879379  0.60557177     0.14500
H1356       H  0.06891786  0.40380654  0.67611410     0.15100
C1357       C  0.05300391  0.51288928  0.65579634    -0.14500
C1358       C  0.06325141  0.51643814  0.62275237    -0.29700
H1359       H  0.04710013  0.52902340  0.67159785     0.14500
H1360       H  0.06650671  0.50042529  0.60523936     0.15100
C1361       C  0.92712156  0.41101386  0.85728620    -0.14500
C1362       C  0.94733481  0.42066427  0.84020297    -0.29700
H1363       H  0.90926041  0.42067605  0.85619322     0.14500
H1364       H  0.96463745  0.40999649  0.83936246     0.15100
C1365       C  0.92727361  0.51172501  0.85062443    -0.14500
C1366       C  0.93179250  0.53642136  0.84728560    -0.29700
H1367       H  0.91660136  0.50554397  0.87404433     0.14500
H1368       H  0.94188686  0.54334571  0.82380291     0.15100
C1369       C  0.92372603  0.42742378  0.65000517    -0.14500
C1370       C  0.92834066  0.40275614  0.65321659    -0.29700
H1371       H  0.91223481  0.43342042  0.62717994     0.14500
H1372       H  0.93937133  0.39601335  0.67602228     0.15100
C1373       C  0.94300539  0.51896173  0.65818715    -0.14500
C1374       C  0.93644574  0.52277560  0.62304902    -0.29700
H1375       H  0.94793098  0.53475172  0.67549906     0.14500
H1376       H  0.93462539  0.50671374  0.60506930     0.15100
C1377       C  0.45523086  0.03284232  0.84281106    -0.14500
C1378       C  0.43050083  0.02979336  0.83756757    -0.29700
H1379       H  0.46151562  0.04281325  0.86698493     0.14500
H1380       H  0.42365787  0.02076554  0.81297897     0.15100
C1381       C  0.54654269  0.01750864  0.82399752    -0.14500
C1382       C  0.55203707  0.02350355  0.85887002    -0.29700
H1383       H  0.56141163  0.01345848  0.80490680     0.14500
H1384       H  0.53697473  0.02444303  0.87846385     0.15100
C1385       C  0.44875070  0.01762497  0.63447631    -0.14500
C1386       C  0.43893569  0.04066671  0.63000930    -0.29700
H1387       H  0.44016139  0.00213038  0.61962834     0.14500
H1388       H  0.44577262  0.05645783  0.64595512     0.15100
C1389       C  0.54272235  0.02396055  0.65077019    -0.14500
C1390       C  0.54767838  0.02868091  0.61554150    -0.29700
H1391       H  0.55808606  0.02239201  0.67003806     0.14500
H1392       H  0.53260946  0.02734748  0.59577773     0.15100
C1393       C  0.44965046  0.89597907  0.83143008    -0.14500
C1394       C  0.44420190  0.90044223  0.86657943    -0.29700
H1395       H  0.43626539  0.88663734  0.81368081     0.14500
H1396       H  0.45824662  0.91011395  0.88293533     0.15100
C1397       C  0.54402697  0.90844959  0.83767625    -0.14500
C1398       C  0.54766071  0.89885276  0.87131853    -0.29700
H1399       H  0.56014257  0.91384582  0.82154583     0.14500
H1400       H  0.53170072  0.89608374  0.88897490     0.15100
C1401       C  0.45391785  0.90846023  0.65214799    -0.14500
C1402       C  0.44921588  0.90474009  0.61655062    -0.29700
H1403       H  0.43845345  0.91134019  0.67069870     0.14500
H1404       H  0.46470482  0.90481269  0.59758695     0.15100
C1405       C  0.54711215  0.89923983  0.64376730    -0.14500
C1406       C  0.57150753  0.90301021  0.65071284    -0.29700
H1407       H  0.54223475  0.88921962  0.61895617     0.14500
H1408       H  0.57744585  0.91184369  0.67591256     0.15100
loop_ 
_geom_bond_atom_site_label_1 
_geom_bond_atom_site_label_2 
_geom_bond_distance 
_geom_bond_site_symmetry_2 
_ccdc_geom_bond_type 
C1            C2   1.537       .  S
C1            C7   1.546       .  S
C1            C5   1.538       .  S
C1          C701   1.519       .  S
C2            H9   1.086       .  S
C2            C3   1.364       .  D
C3            C4   1.534       .  S
C3          C697   1.488       .  S
C4            C8   1.535       .  S
C4            C6   1.537       .  S
C4           H10   1.112       .  S
C5           H11   1.087       .  S
C5            C6   1.362       .  D
C6           C30   1.471       .  S
C7           H12   1.085       .  S
C7            C8   1.375       .  D
C8           C20   1.482       .  S
C13          C14   1.523       .  S
C13          C19   1.538       .  S
C13          C17   1.526       .  S
C13         C689   1.517       .  S
C14          H21   1.085       .  S
C14          C15   1.365       .  D
C15          C16   1.551       .  S
C15         C693   1.496       .  S
C16          C20   1.547       .  S
C16          C18   1.558       .  S
C16          H22   1.109       .  S
C17          H23   1.082       .  S
C17          C18   1.368       .  D
C18          C42   1.511       .  S
C19          H24   1.086       .  S
C19          C20   1.373       .  D
C25          C26   1.528       .  S
C25          C31   1.537       .  S
C25          C29   1.533   1_545  S
C25         C681   1.521       .  S
C26          H33   1.085       .  S
C26          C27   1.371       .  D
C27          C28   1.549   1_545  S
C27         C685   1.498       .  S
C28          C32   1.551   1_565  S
C28          C30   1.536       .  S
C28          H34   1.108       .  S
C29          H35   1.087       .  S
C29          C30   1.356       .  D
C31          H36   1.083       .  S
C31          C32   1.383       .  D
C32          C39   1.510       .  S
C37          C38   1.530       .  S
C37          C43   1.517       .  S
C37          C41   1.530   1_545  S
C37         C673   1.514       .  S
C38          H45   1.084       .  S
C38          C39   1.375       .  D
C39          C40   1.566   1_545  S
C40          C44   1.553   1_565  S
C40          C42   1.548       .  S
C40          H46   1.105       .  S
C41          H47   1.082       .  S
C41          C42   1.374       .  D
C43          H48   1.086       .  S
C43          C44   1.363       .  D
C44         C677   1.487       .  S
C49          C50   1.528       .  S
C49          C55   1.525       .  S
C49          C53   1.546       .  S
C49         C665   1.524       .  S
C50          H57   1.082       .  S
C50          C51   1.369       .  D
C51          C52   1.553       .  S
C51          C80   1.509   1_655  S
C52          C56   1.553       .  S
C52          C54   1.555       .  S
C52          H58   1.108       .  S
C53          H59   1.086       .  S
C53          C54   1.376       .  D
C54          C63   1.503       .  S
C55          H60   1.086       .  S
C55          C56   1.363       .  D
C56         C669   1.494       .  S
C61          C62   1.544       .  S
C61          C67   1.526       .  S
C61          C65   1.527       .  S
C61         C661   1.520       .  S
C62          H69   1.085       .  S
C62          C63   1.376       .  D
C63          C64   1.556       .  S
C64          C68   1.553       .  S
C64          C66   1.556       .  S
C64          H70   1.107       .  S
C65          H71   1.086       .  S
C65          C66   1.363       .  D
C66         C658   1.497       .  S
C67          H72   1.082       .  S
C67          C68   1.366       .  D
C68          C92   1.504   1_655  S
C73          C74   1.533       .  S
C73          C79   1.534       .  S
C73          C77   1.531       .  S
C73         C650   1.520       .  S
C74          H81   1.086       .  S
C74          C75   1.366       .  D
C75          C76   1.546       .  S
C75         C653   1.484       .  S
C76          C80   1.546       .  S
C76          C78   1.544       .  S
C76          H82   1.108       .  S
C77          H83   1.086       .  S
C77          C78   1.366       .  D
C78          C90   1.473       .  S
C79          H84   1.082       .  S
C79          C80   1.373       .  D
C85          C86   1.529       .  S
C85          C91   1.532       .  S
C85          C89   1.536       .  S
C85         C645   1.514       .  S
C86          H93   1.086       .  S
C86          C87   1.363       .  D
C87          C88   1.540       .  S
C87         C641   1.479       .  S
C88          C92   1.542       .  S
C88          C90   1.542       .  S
C88          H94   1.108       .  S
C89          H95   1.086       .  S
C89          C90   1.368       .  D
C91          H96   1.082       .  S
C91          C92   1.375       .  D
C97          C98   1.535       .  S
C97         C103   1.529       .  S
C97         C101   1.530       .  S
C97         C637   1.468       .  S
C98         H105   1.088       .  S
C98          C99   1.361       .  D
C99         C100   1.534       .  S
C99         C633   1.437       .  S
C100        C104   1.546       .  S
C100        C102   1.557       .  S
C100        H106   1.111       .  S
C101        H107   1.086       .  S
C101        C102   1.366       .  D
C102        C666   1.487       .  S
C103        H108   1.088       .  S
C103        C104   1.365       .  D
C104        C636   1.453       .  S
C109        C110   1.528       .  S
C109        C115   1.531       .  S
C109        C113   1.537       .  S
C109        C629   1.470       .  S
C110        H117   1.087       .  S
C110        C111   1.363       .  D
C111        C112   1.550       .  S
C111        C635   1.454       .  S
C112        C116   1.532       .  S
C112        C114   1.548       .  S
C112        H118   1.111       .  S
C113        H119   1.086       .  S
C113        C114   1.371       .  D
C114        C657   1.484       .  S
C115        H120   1.088       .  S
C115        C116   1.359       .  D
C116        C628   1.434       .  S
C121        C122   1.531       .  S
C121        C127   1.532       .  S
C121        C125   1.546       .  S
C121        C626   1.475       .  S
C122        H129   1.087       .  S
C122        C123   1.361       .  D
C123        C124   1.533       .  S
C123        C622   1.440       .  S
C124        C128   1.530       .  S
C124        C126   1.540       .  S
C124        H130   1.112       .  S
C125        H131   1.085       .  S
C125        C126   1.378       .  D
C126        C649   1.485       .  S
C127        H132   1.087       .  S
C127        C128   1.358       .  D
C128        C634   1.437       .  S
C133        C134   1.536       .  S
C133        C139   1.528       .  S
C133        C137   1.536       .  S
C133        C617   1.466       .  S
C134        H141   1.087       .  S
C134        C135   1.361       .  D
C135        C136   1.527       .  S
C135        C627   1.434       .  S
C136        C140   1.537       .  S
C136        C138   1.541       .  S
C136        H142   1.112       .  S
C137        H143   1.086       .  S
C137        C138   1.369       .  D
C138        C642   1.472       .  S
C139        H144   1.087       .  S
C139        C140   1.361       .  D
C140        C621   1.437       .  S
C145        C146   1.534       .  S
C145        C151   1.532       .  S
C145        C149   1.542       .  S
C145        C613   1.471       .  S
C146        H153   1.087       .  S
C146        C147   1.362       .  D
C147        C148   1.530       .  S
C147        C611   1.438       .  S
C148        C152   1.530       .  S
C148        C150   1.537       .  S
C148        H154   1.112       .  S
C149        H155   1.086       .  S
C149        C150   1.374       .  D
C150        C698   1.478       .  S
C151        H156   1.087       .  S
C151        C152   1.360       .  D
C152        C610   1.434       .  S
C157        C158   1.533       .  S
C157        C163   1.528       .  S
C157        C161   1.531       .  S
C157        C608   1.466       .  S
C158        H165   1.087       .  S
C158        C159   1.360       .  D
C159        C160   1.535       .  S
C159        C603   1.440       .  S
C160        C164   1.543       .  S
C160        C162   1.555       .  S
C160        H166   1.111       .  S
C161        H167   1.086       .  S
C161        C162   1.367       .  D
C162        C690   1.483       .  S
C163        H168   1.087       .  S
C163        C164   1.363       .  D
C164        C612   1.446       .  S
C169        C170   1.533       .  S
C169        C175   1.529       .  S
C169        C173   1.540       .  S
C169        C602   1.473       .  S
C170        H177   1.087       .  S
C170        C171   1.358       .  D
C171        C172   1.529       .  S
C171        C609   1.434   1_545  S
C172        C176   1.543       .  S
C172        C174   1.550       .  S
C172        H178   1.111       .  S
C173        H179   1.086       .  S
C173        C174   1.372       .  D
C174        C682   1.491       .  S
C175        H180   1.087       .  S
C175        C176   1.365       .  D
C176        C598   1.447       .  S
C181        C182   1.526       .  S
C181        C187   1.535       .  S
C181        C185   1.531       .  S
C181        C596   1.468       .  S
C182        H189   1.088       .  S
C182        C183   1.362       .  D
C183        C184   1.544       .  S
C183        C597   1.444       .  S
C184        C188   1.533       .  S
C184        C186   1.550       .  S
C184        H190   1.111       .  S
C185        H191   1.086       .  S
C185        C186   1.367       .  D
C186        C674   1.479       .  S
C187        H192   1.087       .  S
C187        C188   1.363       .  D
C188        C604   1.440   1_545  S
C193        C194   1.532       .  S
C193        C199   1.530       .  S
C193        C197   1.533       .  S
C193        C592   1.466       .  S
C194        H201   1.088       .  S
C194        C195   1.359       .  D
C195        C196   1.531       .  S
C195        C585   1.433       .  S
C196        C200   1.543       .  S
C196        C198   1.552       .  S
C196        H202   1.111       .  S
C197        H203   1.086       .  S
C197        C198   1.368       .  D
C198        C702   1.487       .  S
C199        H204   1.087       .  S
C199        C200   1.364       .  D
C200        C588   1.448       .  S
C205        C206   1.531       .  S
C205        C211   1.530       .  S
C205        C209   1.545       .  S
C205        C581   1.470       .  S
C206        H213   1.087       .  S
C206        C207   1.360       .  D
C207        C208   1.537       .  S
C207        C587   1.444       .  S
C208        C212   1.530       .  S
C208        C210   1.537       .  S
C208        H214   1.112       .  S
C209        H215   1.085       .  S
C209        C210   1.375       .  D
C210        C694   1.478       .  S
C211        H216   1.087       .  S
C211        C212   1.358       .  D
C212        C580   1.432       .  S
C217        C218   1.533       .  S
C217        C223   1.531       .  S
C217        C221   1.546       .  S
C217        C575   1.472       .  S
C218        H225   1.087       .  S
C218        C219   1.360       .  D
C219        C220   1.534       .  S
C219        C574   1.441       .  S
C220        C224   1.530   1_545  S
C220        C222   1.539       .  S
C220        H226   1.112       .  S
C221        H227   1.086       .  S
C221        C222   1.376       .  D
C222        C686   1.482       .  S
C223        H228   1.088   1_545  S
C223        C224   1.359   1_545  D
C224        C586   1.433       .  S
C229        C230   1.535       .  S
C229        C235   1.530       .  S
C229        C233   1.529       .  S
C229        C572   1.463       .  S
C230        H237   1.087       .  S
C230        C231   1.360       .  D
C231        C232   1.527       .  S
C231        C579   1.433   1_545  S
C232        C236   1.542       .  S
C232        C234   1.548       .  S
C232        H238   1.112       .  S
C233        H239   1.086       .  S
C233        C234   1.364       .  D
C234        C678   1.473       .  S
C235        H240   1.088       .  S
C235        C236   1.364       .  D
C236        C573   1.443       .  S
In241       O243   2.239       .  S
In241       O244   2.248       .  S
In241       O252   2.256       .  S
In241       O246   2.260       .  S
In241       O248   2.265       .  S
In241       O249   2.236       .  S
In241       O250   2.232       .  S
In241       O253   2.281       .  S
C242        O248   1.262       .  A
C242        O250   1.256       .  A
C242        C640   1.435       .  S
O243        C251   1.259       .  A
O244        C251   1.260       .  A
C245        O252   1.257       .  A
C245        O246   1.257       .  A
C245        C567   1.439       .  S
C247        O249   1.256       .  A
C247        O253   1.261       .  A
C247        C564   1.441       .  S
C251        C565   1.432       .  S
In254       O256   2.224       .  S
In254       O257   2.274       .  S
In254       O265   2.270       .  S
In254       O259   2.238       .  S
In254       O261   2.245       .  S
In254       O262   2.249       .  S
In254       O263   2.238       .  S
In254       O266   2.258       .  S
C255        O261   1.259       .  A
C255        O263   1.258       .  A
C255        C562   1.430       .  S
O256        C264   1.256       .  A
O257        C264   1.263       .  A
C258        O265   1.263       .  A
C258        O259   1.256       .  A
C258        C578   1.441       .  S
C260        O262   1.257       .  A
C260        O266   1.259       .  A
C260        C568   1.438       .  S
C264        C560   1.437   1_545  S
In267       O269   2.233       .  S
In267       O270   2.272       .  S
In267       O278   2.264       .  S
In267       O272   2.244       .  S
In267       O274   2.249       .  S
In267       O275   2.240       .  S
In267       O276   2.244       .  S
In267       O279   2.261       .  S
C268        O274   1.259       .  A
C268        O276   1.259       .  A
C268        C566   1.433       .  S
O269        C277   1.257       .  A
O270        C277   1.261       .  A
C271        O278   1.261       .  A
C271        O272   1.256       .  A
C271        C632   1.438       .  S
C273        O275   1.257       .  A
C273        O279   1.260       .  A
C273        C558   1.435       .  S
C277        C555   1.437       .  S
In280       O282   2.253       .  S
In280       O283   2.251       .  S
In280       O291   2.258       .  S
In280       O285   2.229       .  S
In280       O287   2.247       .  S
In280       O288   2.278       .  S
In280       O289   2.237       .  S
In280       O292   2.228       .  S
C281        O287   1.259       .  A
C281        O289   1.258       .  A
C281        C561   1.430       .  S
O282        C290   1.257       .  A
O283        C290   1.258       .  A
C284        O291   1.262       .  A
C284        O285   1.256       .  A
C284        C569   1.432       .  S
C286        O288   1.262       .  A
C286        O292   1.255       .  A
C286        C554   1.439   1_545  S
C290        C557   1.435       .  S
In293       O295   2.252       .  S
In293       O296   2.256       .  S
In293       O304   2.258       .  S
In293       O298   2.237       .  S
In293       O300   2.237       .  S
In293       O301   2.268       .  S
In293       O302   2.240       .  S
In293       O305   2.225       .  S
C294        O300   1.259       .  A
C294        O302   1.260       .  A
C294        C550   1.429       .  S
O295        C303   1.258       .  A
O296        C303   1.258       .  A
C297        O304   1.262       .  A
C297        O298   1.256       .  A
C297        C546   1.435       .  S
C299        O301   1.261       .  A
C299        O305   1.257       .  A
C299        C547   1.434       .  S
C303        C552   1.439       .  S
In306       O308   2.230       .  S
In306       O309   2.277       .  S
In306       O317   2.272       .  S
In306       O311   2.243       .  S
In306       O313   2.246       .  S
In306       O314   2.256       .  S
In306       O315   2.237       .  S
In306       O318   2.262       .  S
C307        O313   1.260       .  A
C307        O315   1.259       .  A
C307        C541   1.432       .  S
O308        C316   1.256       .  A
O309        C316   1.262       .  A
C310        O317   1.262       .  A
C310        O311   1.255       .  A
C310        C584   1.440       .  S
C312        O314   1.257       .  A
C312        O318   1.258       .  A
C312        C551   1.439       .  S
C316        C553   1.439       .  S
In319       O321   2.233       .  S
In319       O322   2.274       .  S
In319       O330   2.263       .  S
In319       O324   2.233       .  S
In319       O326   2.241       .  S
In319       O327   2.253       .  S
In319       O328   2.239       .  S
In319       O331   2.255       .  S
C320        O326   1.259       .  A
C320        O328   1.258       .  A
C320        C549   1.429       .  S
O321        C329   1.256       .  A
O322        C329   1.262       .  A
C323        O330   1.263       .  A
C323        O324   1.257       .  A
C323        C536   1.437       .  S
C325        O327   1.258       .  A
C325        O331   1.258       .  A
C325        C539   1.438       .  S
C329        C538   1.440       .  S
In332       O334   2.254       .  S
In332       O335   2.261       .  S
In332       O343   2.263       .  S
In332       O337   2.226       .  S
In332       O339   2.237       .  S
In332       O340   2.275       .  S
In332       O341   2.247       .  S
In332       O344   2.228       .  S
C333        O339   1.259       .  A
C333        O341   1.260       .  A
C333        C542   1.431       .  S
O334        C342   1.256       .  A
O335        C342   1.258       .  A
C336        O343   1.262       .  A
C336        O337   1.256       .  A
C336        C589   1.433       .  S
C338        O340   1.261       .  A
C338        O344   1.256       .  A
C338        C559   1.437       .  S
C342        C540   1.438       .  S
In345       O347   2.239       .  S
In345       O348   2.239       .  S
In345       O356   2.258       .  S
In345       O350   2.251       .  S
In345       O352   2.263       .  S
In345       O353   2.227       .  S
In345       O354   2.235       .  S
In345       O357   2.274       .  S
C346        O352   1.262       .  A
C346        O354   1.256       .  A
C346        C620   1.435       .  S
O347        C355   1.259       .  A
O348        C355   1.259       .  A
C349        O356   1.258       .  A
C349        O350   1.257       .  A
C349        C532   1.437       .  S
C351        O353   1.256       .  A
C351        O357   1.262       .  A
C351        C556   1.437       .  S
C355        C529   1.428       .  S
In358       O360   2.223       .  S
In358       O361   2.276       .  S
In358       O369   2.264       .  S
In358       O363   2.235       .  S
In358       O365   2.249       .  S
In358       O366   2.245       .  S
In358       O367   2.235       .  S
In358       O370   2.263       .  S
C359        O365   1.260       .  A
C359        O367   1.259       .  A
C359        C528   1.432       .  S
O360        C368   1.255       .  A
O361        C368   1.261       .  A
C362        O369   1.262       .  A
C362        O363   1.257       .  A
C362        C593   1.436       .  S
C364        O366   1.256       .  A
C364        O370   1.260       .  A
C364        C531   1.437       .  S
C368        C525   1.435   1_545  S
In371       O373   2.231       .  S
In371       O374   2.280       .  S
In371       O382   2.273       .  S
In371       O376   2.246       .  S
In371       O378   2.237       .  S
In371       O379   2.259       .  S
In371       O380   2.241       .  S
In371       O383   2.267       .  S
C372        O378   1.259       .  A
C372        O380   1.259       .  A
C372        C530   1.429       .  S
O373        C381   1.256       .  A
O374        C381   1.263       .  A
C375        O382   1.263       .  A
C375        O376   1.257       .  A
C375        C623   1.444       .  S
C377        O379   1.257       .  A
C377        O383   1.258       .  A
C377        C524   1.443       .  S
C381        C563   1.441       .  S
In384       O386   2.266       .  S
In384       O387   2.262       .  S
In384       O395   2.271       .  S
In384       O389   2.240       .  S
In384       O391   2.247       .  S
In384       O392   2.281       .  S
In384       O393   2.243       .  S
In384       O396   2.231       .  S
C385        O391   1.259       .  A
C385        O393   1.258       .  A
C385        C527   1.432       .  S
O386        C394   1.258       .  A
O387        C394   1.258       .  A
C388        O395   1.263       .  A
C388        O389   1.256       .  A
C388        C599   1.441       .  S
C390        O392   1.263       .  A
C390        O396   1.256       .  A
C390        C521   1.441   1_545  S
C394        C523   1.443       .  S
In397       O399   2.274       .  S
In397       O400   2.221       .  S
In397       O408   2.230       .  S
In397       O402   2.260       .  S
In397       O404   2.251       .  S
In397       O405   2.246       .  S
In397       O406   2.250       .  S
In397       O409   2.241       .  S
C398        O404   1.257       .  A
C398        O406   1.257       .  A
C398        C520   1.434       .  S
O399        C407   1.262       .  A
O400        C407   1.256       .  A
C401        O408   1.256       .  A
C401        O402   1.262       .  A
C401        C605   1.434       .  S
C403        O405   1.259       .  A
C403        O409   1.258       .  A
C403        C518   1.431       .  S
C407        C526   1.435       .  S
In410       O412   2.222       .  S
In410       O413   2.271       .  S
In410       O421   2.263       .  S
In410       O415   2.232       .  S
In410       O417   2.247       .  S
In410       O418   2.245       .  S
In410       O419   2.234       .  S
In410       O422   2.256       .  S
C411        O417   1.260       .  A
C411        O419   1.258       .  A
C411        C516   1.430       .  S
O412        C420   1.255       .  A
O413        C420   1.261       .  A
C414        O421   1.262       .  A
C414        O415   1.256       .  A
C414        C511   1.434       .  S
C416        O418   1.256       .  A
C416        O422   1.258       .  A
C416        C519   1.434       .  S
C420        C548   1.434       .  S
In423       O425   2.238       .  S
In423       O426   2.277       .  S
In423       O434   2.263       .  S
In423       O428   2.245       .  S
In423       O430   2.240       .  S
In423       O431   2.265       .  S
In423       O432   2.245       .  S
In423       O435   2.261       .  S
C424        O430   1.259       .  A
C424        O432   1.260       .  A
C424        C517   1.432       .  S
O425        C433   1.257       .  A
O426        C433   1.262       .  A
C427        O434   1.263       .  A
C427        O428   1.258       .  A
C427        C616   1.440       .  S
C429        O431   1.258       .  A
C429        O435   1.257       .  A
C429        C510   1.443       .  S
C433        C522   1.442       .  S
In436       O438   2.243       .  S
In436       O439   2.238       .  S
In436       O447   2.263       .  S
In436       O441   2.264       .  S
In436       O443   2.273       .  S
In436       O444   2.231       .  S
In436       O445   2.240       .  S
In436       O448   2.274       .  S
C437        O443   1.264       .  A
C437        O445   1.257       .  A
C437        C505   1.442       .  S
O438        C446   1.259       .  A
O439        C446   1.258       .  A
C440        O447   1.257       .  A
C440        O441   1.258       .  A
C440        C509   1.443       .  S
C442        O444   1.256       .  A
C442        O448   1.263       .  A
C442        C537   1.440       .  S
C446        C515   1.430       .  S
C449        C450   1.528       .  S
C449        C455   1.530       .  S
C449        C453   1.537       .  S
C449        C533   1.468       .  S
C450        H457   1.087       .  S
C450        C451   1.363       .  D
C451        C452   1.548       .  S
C451        C503   1.451       .  S
C452        C456   1.532       .  S
C452        C454   1.547       .  S
C452        H458   1.111       .  S
C453        H459   1.086       .  S
C453        C454   1.370       .  D
C454        C670   1.480       .  S
C455        H460   1.088       .  S
C455        C456   1.358       .  D
C456        C502   1.432       .  S
C461        C462   1.532       .  S
C461        C467   1.528       .  S
C461        C465   1.530       .  S
C461        C543   1.467       .  S
C462        H469   1.087       .  S
C462        C463   1.360       .  D
C463        C464   1.538       .  S
C463        C499   1.441       .  S
C464        C468   1.546       .  S
C464        C466   1.556       .  S
C464        H470   1.111       .  S
C465        H471   1.086       .  S
C465        C466   1.366       .  D
C466        C662   1.485       .  S
C467        H472   1.087       .  S
C467        C468   1.364       .  D
C468        C504   1.448       .  S
C473        C474   1.535       .  S
C473        C479   1.530       .  S
C473        C477   1.541       .  S
C473        C508   1.474       .  S
C474        H481   1.087       .  S
C474        C475   1.360       .  D
C475        C476   1.525       .  S
C475        C501   1.433       .  S
C476        C480   1.537       .  S
C476        C478   1.541       .  S
C476        H482   1.112       .  S
C477        H483   1.086       .  S
C477        C478   1.372       .  D
C478        C654   1.480       .  S
C479        H484   1.087       .  S
C479        C480   1.363       .  D
C480        C497   1.440       .  S
C485        C486   1.526       .  S
C485        C491   1.534       .  S
C485        C489   1.535       .  S
C485        C514   1.467       .  S
C486        H493   1.087       .  S
C486        C487   1.361       .  D
C487        C488   1.542       .  S
C487        C498   1.443       .  S
C488        C492   1.534       .  S
C488        C490   1.549       .  S
C488        H494   1.111       .  S
C489        H495   1.086       .  S
C489        C490   1.370       .  D
C490        C646   1.482       .  S
C491        H496   1.087       .  S
C491        C492   1.361       .  D
C492        C500   1.441       .  S
C497       C1202   1.205   1_554  T
C498       C1201   1.207       .  T
C499        C500   1.206   1_655  T
C501        C502   1.200   1_455  T
C503       C1208   1.212   1_554  T
C504       C1207   1.210       .  T
C505        C506   1.210       .  T
C506        C507   1.419       .  S
C507        C508   1.210       .  T
C509        C510   1.210       .  T
C511        C512   1.205       .  T
C512        C513   1.411       .  S
C513        C514   1.205       .  T
C515        C516   1.202       .  T
C517        C518   1.203       .  T
C519        C520   1.205       .  T
C521        C522   1.210       .  T
C523        C524   1.210       .  T
C525        C526   1.205       .  T
C527        C528   1.204       .  T
C529        C530   1.202       .  T
C531        C532   1.207       .  T
C533        C534   1.207       .  T
C534        C535   1.413       .  S
C535        C536   1.207       .  T
C537        C538   1.208   1_455  T
C539        C540   1.207       .  T
C541        C542   1.204       .  T
C543        C544   1.205       .  T
C544        C545   1.411       .  S
C545        C546   1.205       .  T
C547        C548   1.205   1_655  T
C549        C550   1.202       .  T
C551        C552   1.208       .  T
C553        C554   1.208       .  T
C555        C556   1.207   1_655  T
C557        C558   1.206       .  T
C559        C560   1.207       .  T
C561        C562   1.202       .  T
C563        C564   1.209   1_455  T
C565        C566   1.204       .  T
C567        C568   1.208       .  T
C569        C570   1.203       .  T
C570        C571   1.408       .  S
C571        C572   1.203       .  T
C573       C1278   1.206       .  T
C574       C1277   1.205   1_554  T
C575        C576   1.209       .  T
C576        C577   1.417       .  S
C577        C578   1.209       .  T
C579        C580   1.200       .  T
C581        C582   1.208       .  T
C582        C583   1.416       .  S
C583        C584   1.208       .  T
C585        C586   1.201       .  T
C587       C1292   1.207       .  T
C588       C1291   1.210   1_554  T
C589        C590   1.205       .  T
C590        C591   1.410       .  S
C591        C592   1.205       .  T
C593        C594   1.206       .  T
C594        C595   1.412       .  S
C595        C596   1.206       .  T
C597       C1302   1.208       .  T
C598       C1301   1.209   1_554  T
C599        C600   1.209       .  T
C600        C601   1.418       .  S
C601        C602   1.209       .  T
C603        C604   1.205       .  T
C605        C606   1.205       .  T
C606        C607   1.411       .  S
C607        C608   1.205       .  T
C609        C610   1.201       .  T
C611       C1316   1.203   1_554  T
C612       C1315   1.208       .  T
C613        C614   1.208       .  T
C614        C615   1.416       .  S
C615        C616   1.209       .  T
C617        C618   1.205       .  T
C618        C619   1.411       .  S
C619        C620   1.205       .  T
C621       C1326   1.203       .  T
C622       C1325   1.205   1_554  T
C623        C624   1.211       .  T
C624        C625   1.420       .  S
C625        C626   1.211       .  T
C627        C628   1.201   1_455  T
C629        C630   1.207       .  T
C630        C631   1.414       .  S
C631        C632   1.207       .  T
C633        C634   1.203   1_655  T
C635       C1340   1.214       .  T
C636       C1339   1.213   1_554  T
C637        C638   1.206       .  T
C638        C639   1.412       .  S
C639        C640   1.206       .  T
C641        H643   1.087       .  S
C641        C642   1.344       .  D
C642        H644   1.086       .  S
C645        H647   1.087       .  S
C645        C646   1.340       .  D
C646        H648   1.086       .  S
C649        H651   1.087       .  S
C649        C650   1.346       .  D
C650        H652   1.085       .  S
C653        H655   1.087       .  S
C653        C654   1.347       .  D
C654        H656   1.086       .  S
C657        H659   1.085       .  S
C657        C658   1.354       .  D
C658        H660   1.086       .  S
C661        H663   1.088       .  S
C661        C662   1.341       .  D
C662        H664   1.086       .  S
C665        H667   1.087       .  S
C665        C666   1.340       .  D
C666        H668   1.086       .  S
C669        H671   1.086       .  S
C669        C670   1.352       .  D
C670        H672   1.085       .  S
C673        H675   1.088       .  S
C673        C674   1.339       .  D
C674        H676   1.087       .  S
C677        H679   1.086   1_545  S
C677        C678   1.348       .  D
C678        H680   1.086       .  S
C681        H683   1.087       .  S
C681        C682   1.346       .  D
C682        H684   1.086       .  S
C685        H687   1.086       .  S
C685        C686   1.349       .  D
C686        H688   1.083       .  S
C689        H691   1.087       .  S
C689        C690   1.339       .  D
C690        H692   1.086       .  S
C693        H695   1.086       .  S
C693        C694   1.351       .  D
C694        H696   1.084       .  S
C697        H699   1.086       .  S
C697        C698   1.345       .  D
C698        H700   1.085       .  S
C701        H703   1.088       .  S
C701        C702   1.339       .  D
C702        H704   1.086       .  S
C705        C706   1.538       .  S
C705        C711   1.545       .  S
C705        C709   1.540       .  S
C705       C1405   1.518       .  S
C706        H713   1.086       .  S
C706        C707   1.362       .  D
C707        C708   1.537       .  S
C707       C1401   1.493       .  S
C708        C712   1.538       .  S
C708        C710   1.535       .  S
C708        H714   1.112       .  S
C709        H715   1.087       .  S
C709        C710   1.364       .  D
C710        C734   1.471       .  S
C711        H716   1.086       .  S
C711        C712   1.374       .  D
C712        C724   1.482       .  S
C717        C718   1.529       .  S
C717        C723   1.532       .  S
C717        C721   1.525       .  S
C717       C1393   1.522       .  S
C718        H725   1.085       .  S
C718        C719   1.370       .  D
C719        C720   1.558       .  S
C719       C1397   1.503       .  S
C720        C724   1.554       .  S
C720        C722   1.560       .  S
C720        H726   1.110       .  S
C721        H727   1.082       .  S
C721        C722   1.368       .  D
C722        C746   1.517       .  S
C723        H728   1.086       .  S
C723        C724   1.369       .  D
C729        C730   1.528       .  S
C729        C735   1.533       .  S
C729        C733   1.532   1_545  S
C729       C1385   1.517       .  S
C730        H737   1.085       .  S
C730        C731   1.370       .  D
C731        C732   1.551   1_545  S
C731       C1389   1.498       .  S
C732        C736   1.555   1_565  S
C732        C734   1.538       .  S
C732        H738   1.108       .  S
C733        H739   1.088       .  S
C733        C734   1.357       .  D
C735        H740   1.083       .  S
C735        C736   1.381       .  D
C736        C743   1.512       .  S
C741        C742   1.529       .  S
C741        C747   1.515       .  S
C741        C745   1.526   1_545  S
C741       C1377   1.520       .  S
C742        H749   1.083       .  S
C742        C743   1.378       .  D
C743        C744   1.566   1_545  S
C744        C748   1.561   1_565  S
C744        C746   1.554       .  S
C744        H750   1.107       .  S
C745        H751   1.082       .  S
C745        C746   1.374       .  D
C747        H752   1.086       .  S
C747        C748   1.366       .  D
C748       C1381   1.498       .  S
C753        C754   1.526       .  S
C753        C759   1.521       .  S
C753        C757   1.544       .  S
C753       C1369   1.527       .  S
C754        H761   1.081       .  S
C754        C755   1.372       .  D
C755        C756   1.557       .  S
C755        C784   1.514   1_655  S
C756        C760   1.558       .  S
C756        C758   1.557       .  S
C756        H762   1.109       .  S
C757        H763   1.086       .  S
C757        C758   1.377       .  D
C758        C767   1.502       .  S
C759        H764   1.086       .  S
C759        C760   1.364       .  D
C760       C1373   1.499       .  S
C765        C766   1.547       .  S
C765        C771   1.528       .  S
C765        C769   1.526       .  S
C765       C1365   1.525       .  S
C766        H773   1.085       .  S
C766        C767   1.377       .  D
C767        C768   1.552       .  S
C768        C772   1.551       .  S
C768        C770   1.551       .  S
C768        H774   1.107       .  S
C769        H775   1.086       .  S
C769        C770   1.362       .  D
C770       C1362   1.492       .  S
C771        H776   1.082       .  S
C771        C772   1.369       .  D
C772        C796   1.505   1_655  S
C777        C778   1.528       .  S
C777        C783   1.530       .  S
C777        C781   1.528       .  S
C777       C1354   1.517       .  S
C778        H785   1.084       .  S
C778        C779   1.368       .  D
C779        C780   1.552       .  S
C779       C1357   1.497       .  S
C780        C784   1.553       .  S
C780        C782   1.546       .  S
C780        H786   1.109       .  S
C781        H787   1.086       .  S
C781        C782   1.365       .  D
C782        C794   1.471       .  S
C783        H788   1.082       .  S
C783        C784   1.374       .  D
C789        C790   1.536       .  S
C789        C795   1.533       .  S
C789        C793   1.534       .  S
C789       C1349   1.519       .  S
C790        H797   1.086       .  S
C790        C791   1.366       .  D
C791        C792   1.544       .  S
C791       C1345   1.486       .  S
C792        C796   1.543       .  S
C792        C794   1.542       .  S
C792        H798   1.108       .  S
C793        H799   1.086       .  S
C793        C794   1.367       .  D
C795        H800   1.082       .  S
C795        C796   1.371       .  D
C801        C802   1.532       .  S
C801        C807   1.532       .  S
C801        C805   1.533       .  S
C801       C1341   1.472       .  S
C802        H809   1.087       .  S
C802        C803   1.359       .  D
C803        C804   1.532       .  S
C803       C1337   1.434       .  S
C804        C808   1.546       .  S
C804        C806   1.557       .  S
C804        H810   1.112       .  S
C805        H811   1.086       .  S
C805        C806   1.368       .  D
C806       C1370   1.491       .  S
C807        H812   1.087       .  S
C807        C808   1.367       .  D
C808       C1340   1.455       .  S
C813        C814   1.529       .  S
C813        C819   1.533       .  S
C813        C817   1.538       .  S
C813       C1333   1.473       .  S
C814        H821   1.087       .  S
C814        C815   1.363       .  D
C815        C816   1.547       .  S
C815       C1339   1.452       .  S
C816        C820   1.530       .  S
C816        C818   1.545       .  S
C816        H822   1.111       .  S
C817        H823   1.086       .  S
C817        C818   1.371       .  D
C818       C1361   1.481       .  S
C819        H824   1.087       .  S
C819        C820   1.361       .  D
C820       C1332   1.433       .  S
C825        C826   1.531       .  S
C825        C831   1.533       .  S
C825        C829   1.544       .  S
C825       C1330   1.471       .  S
C826        H833   1.087       .  S
C826        C827   1.361       .  D
C827        C828   1.531       .  S
C827       C1326   1.438       .  S
C828        C832   1.528       .  S
C828        C830   1.538       .  S
C828        H834   1.112       .  S
C829        H835   1.085       .  S
C829        C830   1.377       .  D
C830       C1353   1.481       .  S
C831        H836   1.087       .  S
C831        C832   1.359       .  D
C832       C1338   1.434       .  S
C837        C838   1.533       .  S
C837        C843   1.529       .  S
C837        C841   1.541       .  S
C837       C1321   1.472       .  S
C838        H845   1.087       .  S
C838        C839   1.358       .  D
C839        C840   1.528       .  S
C839       C1331   1.433       .  S
C840        C844   1.538       .  S
C840        C842   1.542       .  S
C840        H846   1.112       .  S
C841        H847   1.086       .  S
C841        C842   1.374       .  D
C842       C1346   1.481       .  S
C843        H848   1.087       .  S
C843        C844   1.361       .  D
C844       C1325   1.440       .  S
C849        C850   1.534       .  S
C849        C855   1.530       .  S
C849        C853   1.544       .  S
C849       C1317   1.474       .  S
C850        H857   1.087       .  S
C850        C851   1.363       .  D
C851        C852   1.535       .  S
C851       C1315   1.446       .  S
C852        C856   1.533       .  S
C852        C854   1.542       .  S
C852        H858   1.112       .  S
C853        H859   1.086       .  S
C853        C854   1.375       .  D
C854       C1402   1.483       .  S
C855        H860   1.088       .  S
C855        C856   1.358       .  D
C856       C1314   1.435       .  S
C861        C862   1.534       .  S
C861        C867   1.530       .  S
C861        C865   1.543       .  S
C861       C1312   1.470       .  S
C862        H869   1.087       .  S
C862        C863   1.359       .  D
C863        C864   1.531       .  S
C863       C1307   1.439       .  S
C864        C868   1.534       .  S
C864        C866   1.544       .  S
C864        H870   1.112       .  S
C865        H871   1.084       .  S
C865        C866   1.377       .  D
C866       C1394   1.486       .  S
C867        H872   1.087       .  S
C867        C868   1.359       .  D
C868       C1316   1.438       .  S
C873        C874   1.536       .  S
C873        C879   1.532       .  S
C873        C877   1.540       .  S
C873       C1306   1.475       .  S
C874        H881   1.087       .  S
C874        C875   1.360       .  D
C875        C876   1.527       .  S
C875       C1313   1.435   1_545  S
C876        C880   1.538       .  S
C876        C878   1.547       .  S
C876        H882   1.112       .  S
C877        H883   1.086       .  S
C877        C878   1.371       .  D
C878       C1386   1.488       .  S
C879        H884   1.087       .  S
C879        C880   1.366       .  D
C880       C1302   1.445       .  S
C885        C886   1.528       .  S
C885        C891   1.533       .  S
C885        C889   1.534       .  S
C885       C1300   1.469       .  S
C886        H893   1.087       .  S
C886        C887   1.364       .  D
C887        C888   1.543       .  S
C887       C1301   1.447       .  S
C888        C892   1.535       .  S
C888        C890   1.550       .  S
C888        H894   1.111       .  S
C889        H895   1.086       .  S
C889        C890   1.369       .  D
C890       C1378   1.485       .  S
C891        H896   1.088       .  S
C891        C892   1.360       .  D
C892       C1308   1.438   1_545  S
C897        C898   1.535       .  S
C897        C903   1.532       .  S
C897        C901   1.535       .  S
C897       C1296   1.469       .  S
C898        H905   1.087       .  S
C898        C899   1.360       .  D
C899        C900   1.528       .  S
C899       C1289   1.432       .  S
C900        C904   1.538       .  S
C900        C902   1.549       .  S
C900        H906   1.111       .  S
C901        H907   1.086       .  S
C901        C902   1.368       .  D
C902       C1406   1.487       .  S
C903        H908   1.088       .  S
C903        C904   1.366       .  D
C904       C1292   1.444       .  S
C909        C910   1.535       .  S
C909        C915   1.527       .  S
C909        C913   1.547       .  S
C909       C1285   1.476       .  S
C910        H917   1.087       .  S
C910        C911   1.365       .  D
C911        C912   1.539       .  S
C911       C1291   1.449       .  S
C912        C916   1.529       .  S
C912        C914   1.543       .  S
C912        H918   1.112       .  S
C913        H919   1.085       .  S
C913        C914   1.376       .  D
C914       C1398   1.489       .  S
C915        H920   1.088       .  S
C915        C916   1.355       .  D
C916       C1284   1.427       .  S
C921        C922   1.533       .  S
C921        C927   1.529       .  S
C921        C925   1.548       .  S
C921       C1279   1.474       .  S
C922        H929   1.087       .  S
C922        C923   1.362       .  D
C923        C924   1.534       .  S
C923       C1278   1.443       .  S
C924        C928   1.531       .  S
C924        C926   1.540       .  S
C924        H930   1.112       .  S
C925        H931   1.085       .  S
C925        C926   1.378       .  D
C926       C1390   1.485       .  S
C927        H932   1.088       .  S
C927        C928   1.356       .  D
C928       C1290   1.432   1_545  S
C933        C934   1.534       .  S
C933        C939   1.535       .  S
C933        C937   1.543       .  S
C933       C1276   1.471       .  S
C934        H941   1.087   1_545  S
C934        C935   1.360   1_545  D
C935        C936   1.523   1_565  S
C935       C1283   1.428       .  S
C936        C940   1.531       .  S
C936        C938   1.540       .  S
C936        H942   1.112       .  S
C937        H943   1.085       .  S
C937        C938   1.373       .  D
C938       C1382   1.480       .  S
C939        H944   1.087       .  S
C939        C940   1.362       .  D
C940       C1277   1.442       .  S
In945       O947   2.244       .  S
In945       O948   2.244       .  S
In945       O956   2.260       .  S
In945       O950   2.267       .  S
In945       O952   2.270       .  S
In945       O953   2.234       .  S
In945       O954   2.239       .  S
In945       O957   2.282       .  S
C946        O952   1.263       .  A
C946        O954   1.256       .  A
C946       C1344   1.440       .  S
O947        C955   1.258       .  A
O948        C955   1.258       .  A
C949        O956   1.259       .  A
C949        O950   1.259       .  A
C949       C1271   1.444       .  S
C951        O953   1.256       .  A
C951        O957   1.263       .  A
C951       C1268   1.443       .  S
C955       C1269   1.431       .  S
In958       O960   2.232       .  S
In958       O961   2.282       .  S
In958       O969   2.285       .  S
In958       O963   2.249       .  S
In958       O965   2.247       .  S
In958       O966   2.257       .  S
In958       O967   2.234       .  S
In958       O970   2.268       .  S
C959        O965   1.259       .  A
C959        O967   1.258       .  A
C959       C1266   1.429       .  S
O960        C968   1.256       .  A
O961        C968   1.263       .  A
C962        O969   1.262       .  A
C962        O963   1.254       .  A
C962       C1282   1.445       .  S
C964        O966   1.257       .  A
C964        O970   1.260       .  A
C964       C1272   1.444       .  S
C968       C1264   1.442   1_545  S
In971       O973   2.233       .  S
In971       O974   2.281       .  S
In971       O982   2.277       .  S
In971       O976   2.239       .  S
In971       O978   2.242       .  S
In971       O979   2.261       .  S
In971       O980   2.244       .  S
In971       O983   2.264       .  S
C972        O978   1.259       .  A
C972        O980   1.259       .  A
C972       C1270   1.431       .  S
O973        C981   1.257       .  A
O974        C981   1.263       .  A
C975        O982   1.263       .  A
C975        O976   1.255       .  A
C975       C1336   1.441       .  S
C977        O979   1.258       .  A
C977        O983   1.259       .  A
C977       C1262   1.444       .  S
C981       C1259   1.443       .  S
In984       O986   2.266       .  S
In984       O987   2.263       .  S
In984       O995   2.271       .  S
In984       O989   2.241       .  S
In984       O991   2.245       .  S
In984       O992   2.279       .  S
In984       O993   2.232       .  S
In984       O996   2.235       .  S
C985        O991   1.260       .  A
C985        O993   1.259       .  A
C985       C1265   1.429       .  S
O986        C994   1.258       .  A
O987        C994   1.257       .  A
C988        O995   1.263       .  A
C988        O989   1.256       .  A
C988       C1273   1.440       .  S
C990        O992   1.262       .  A
C990        O996   1.256       .  A
C990       C1258   1.442   1_545  S
C994       C1261   1.444       .  S
In997       O999   2.262       .  S
In997      O1000   2.267       .  S
In997      O1008   2.267       .  S
In997      O1002   2.237       .  S
In997      O1004   2.236       .  S
In997      O1005   2.280       .  S
In997      O1006   2.253       .  S
In997      O1009   2.234       .  S
C998       O1004   1.258       .  A
C998       O1006   1.260       .  A
C998       C1254   1.433       .  S
O999       C1007   1.257       .  A
O1000      C1007   1.258       .  A
C1001      O1008   1.263       .  A
C1001      O1002   1.257       .  A
C1001      C1250   1.439       .  S
C1003      O1005   1.263       .  A
C1003      O1009   1.256       .  A
C1003      C1251   1.441       .  S
C1007      C1256   1.444       .  S
In1010     O1012   2.233       .  S
In1010     O1013   2.282       .  S
In1010     O1021   2.278       .  S
In1010     O1015   2.248       .  S
In1010     O1017   2.246       .  S
In1010     O1018   2.253       .  S
In1010     O1019   2.234       .  S
In1010     O1022   2.272       .  S
C1011      O1017   1.260       .  A
C1011      O1019   1.258       .  A
C1011      C1245   1.429       .  S
O1012      C1020   1.256       .  A
O1013      C1020   1.263       .  A
C1014      O1021   1.263       .  A
C1014      O1015   1.256       .  A
C1014      C1288   1.446       .  S
C1016      O1018   1.257       .  A
C1016      O1022   1.260       .  A
C1016      C1255   1.444       .  S
C1020      C1257   1.442       .  S
In1023     O1025   2.231       .  S
In1023     O1026   2.289       .  S
In1023     O1034   2.273       .  S
In1023     O1028   2.249       .  S
In1023     O1030   2.245       .  S
In1023     O1031   2.265       .  S
In1023     O1032   2.247       .  S
In1023     O1035   2.264       .  S
C1024      O1030   1.259       .  A
C1024      O1032   1.259       .  A
C1024      C1253   1.433       .  S
O1025      C1033   1.256       .  A
O1026      C1033   1.264       .  A
C1027      O1034   1.262       .  A
C1027      O1028   1.257       .  A
C1027      C1240   1.444       .  S
C1029      O1031   1.258       .  A
C1029      O1035   1.258       .  A
C1029      C1243   1.445       .  S
C1033      C1242   1.444       .  S
In1036     O1038   2.266       .  S
In1036     O1039   2.267       .  S
In1036     O1047   2.265       .  S
In1036     O1041   2.236       .  S
In1036     O1043   2.245       .  S
In1036     O1044   2.275       .  S
In1036     O1045   2.237       .  S
In1036     O1048   2.237       .  S
C1037      O1043   1.259       .  A
C1037      O1045   1.259       .  A
C1037      C1246   1.429       .  S
O1038      C1046   1.257       .  A
O1039      C1046   1.258       .  A
C1040      O1047   1.263       .  A
C1040      O1041   1.256       .  A
C1040      C1293   1.437       .  S
C1042      O1044   1.262       .  A
C1042      O1048   1.256       .  A
C1042      C1263   1.441       .  S
C1046      C1244   1.445       .  S
In1049     O1051   2.244       .  S
In1049     O1052   2.228       .  S
In1049     O1060   2.256       .  S
In1049     O1054   2.265       .  S
In1049     O1056   2.277       .  S
In1049     O1057   2.233       .  S
In1049     O1058   2.242       .  S
In1049     O1061   2.285       .  S
C1050      O1056   1.262       .  A
C1050      O1058   1.255       .  A
C1050      C1324   1.441       .  S
O1051      C1059   1.260       .  A
O1052      C1059   1.259       .  A
C1053      O1060   1.257       .  A
C1053      O1054   1.259       .  A
C1053      C1236   1.442       .  S
C1055      O1057   1.255       .  A
C1055      O1061   1.263       .  A
C1055      C1260   1.443       .  S
C1059      C1233   1.427       .  S
In1062     O1064   2.231       .  S
In1062     O1065   2.285       .  S
In1062     O1073   2.268       .  S
In1062     O1067   2.236       .  S
In1062     O1069   2.244       .  S
In1062     O1070   2.258       .  S
In1062     O1071   2.242       .  S
In1062     O1074   2.259       .  S
C1063      O1069   1.260       .  A
C1063      O1071   1.260       .  A
C1063      C1232   1.432       .  S
O1064      C1072   1.255       .  A
O1065      C1072   1.262       .  A
C1066      O1073   1.262       .  A
C1066      O1067   1.255       .  A
C1066      C1297   1.437       .  S
C1068      O1070   1.259       .  A
C1068      O1074   1.258       .  A
C1068      C1235   1.442       .  S
C1072      C1229   1.441   1_545  S
In1075     O1077   2.240       .  S
In1075     O1078   2.279       .  S
In1075     O1086   2.272       .  S
In1075     O1080   2.237       .  S
In1075     O1082   2.237       .  S
In1075     O1083   2.261       .  S
In1075     O1084   2.237       .  S
In1075     O1087   2.268       .  S
C1076      O1082   1.259       .  A
C1076      O1084   1.259       .  A
C1076      C1234   1.427       .  S
O1077      C1085   1.256       .  A
O1078      C1085   1.263       .  A
C1079      O1086   1.264       .  A
C1079      O1080   1.256       .  A
C1079      C1327   1.440       .  S
C1081      O1083   1.258       .  A
C1081      O1087   1.260       .  A
C1081      C1228   1.446       .  S
C1085      C1267   1.444       .  S
In1088     O1090   2.265       .  S
In1088     O1091   2.272       .  S
In1088     O1099   2.272       .  S
In1088     O1093   2.245       .  S
In1088     O1095   2.242       .  S
In1088     O1096   2.286       .  S
In1088     O1097   2.244       .  S
In1088     O1100   2.239       .  S
C1089      O1095   1.259       .  A
C1089      O1097   1.259       .  A
C1089      C1231   1.432       .  S
O1090      C1098   1.258       .  A
O1091      C1098   1.259       .  A
C1092      O1099   1.263       .  A
C1092      O1093   1.257       .  A
C1092      C1303   1.443       .  S
C1094      O1096   1.264       .  A
C1094      O1100   1.256       .  A
C1094      C1225   1.446   1_545  S
C1098      C1227   1.447       .  S
In1101     O1103   2.287       .  S
In1101     O1104   2.226       .  S
In1101     O1112   2.239       .  S
In1101     O1106   2.275       .  S
In1101     O1108   2.263       .  S
In1101     O1109   2.238       .  S
In1101     O1110   2.258       .  S
In1101     O1113   2.240       .  S
C1102      O1108   1.259       .  A
C1102      O1110   1.258       .  A
C1102      C1224   1.442       .  S
O1103      C1111   1.263       .  A
O1104      C1111   1.255       .  A
C1105      O1112   1.255       .  A
C1105      O1106   1.262       .  A
C1105      C1309   1.439       .  S
C1107      O1109   1.259       .  A
C1107      O1113   1.260       .  A
C1107      C1222   1.429       .  S
C1111      C1230   1.441       .  S
In1114     O1116   2.238       .  S
In1114     O1117   2.278       .  S
In1114     O1125   2.274       .  S
In1114     O1119   2.242       .  S
In1114     O1121   2.244       .  S
In1114     O1122   2.254       .  S
In1114     O1123   2.235       .  S
In1114     O1126   2.266       .  S
C1115      O1121   1.260       .  A
C1115      O1123   1.260       .  A
C1115      C1220   1.430       .  S
O1116      C1124   1.256       .  A
O1117      C1124   1.262       .  A
C1118      O1125   1.262       .  A
C1118      O1119   1.255       .  A
C1118      C1215   1.441       .  S
C1120      O1122   1.258       .  A
C1120      O1126   1.260       .  A
C1120      C1223   1.443       .  S
C1124      C1252   1.441       .  S
In1127     O1129   2.241       .  S
In1127     O1130   2.285       .  S
In1127     O1138   2.274       .  S
In1127     O1132   2.243       .  S
In1127     O1134   2.232       .  S
In1127     O1135   2.279       .  S
In1127     O1136   2.247       .  S
In1127     O1139   2.266       .  S
C1128      O1134   1.259       .  A
C1128      O1136   1.260       .  A
C1128      C1221   1.429       .  S
O1129      C1137   1.256       .  A
O1130      C1137   1.263       .  A
C1131      O1138   1.263       .  A
C1131      O1132   1.256       .  A
C1131      C1320   1.443       .  S
C1133      O1135   1.259       .  A
C1133      O1139   1.257       .  A
C1133      C1214   1.449       .  S
C1137      C1226   1.446       .  S
In1140     O1142   2.249       .  S
In1140     O1143   2.234       .  S
In1140     O1151   2.265       .  S
In1140     O1145   2.278       .  S
In1140     O1147   2.275       .  S
In1140     O1148   2.232       .  S
In1140     O1149   2.249       .  S
In1140     O1152   2.288       .  S
C1141      O1147   1.264       .  A
C1141      O1149   1.257       .  A
C1141      C1209   1.445       .  S
O1142      C1150   1.260       .  A
O1143      C1150   1.258       .  A
C1144      O1151   1.256       .  A
C1144      O1145   1.259       .  A
C1144      C1213   1.448       .  S
C1146      O1148   1.256       .  A
C1146      O1152   1.264       .  A
C1146      C1241   1.444       .  S
C1150      C1219   1.430       .  S
C1153      C1154   1.536       .  S
C1153      C1159   1.531       .  S
C1153      C1157   1.544       .  S
C1153      C1237   1.474       .  S
C1154      H1161   1.087       .  S
C1154      C1155   1.365       .  D
C1155      C1156   1.536       .  S
C1155      C1207   1.449       .  S
C1156      C1160   1.525       .  S
C1156      C1158   1.542       .  S
C1156      H1162   1.112       .  S
C1157      H1163   1.085       .  S
C1157      C1158   1.373       .  D
C1158      C1374   1.482       .  S
C1159      H1164   1.087       .  S
C1159      C1160   1.359       .  D
C1160      C1206   1.427       .  S
C1165      C1166   1.534       .  S
C1165      C1171   1.531       .  S
C1165      C1169   1.532       .  S
C1165      C1247   1.472       .  S
C1166      H1173   1.087       .  S
C1166      C1167   1.361       .  D
C1167      C1168   1.533       .  S
C1167      C1203   1.437       .  S
C1168      C1172   1.545       .  S
C1168      C1170   1.555       .  S
C1168      H1174   1.111       .  S
C1169      H1175   1.086       .  S
C1169      C1170   1.367       .  D
C1170      C1366   1.489       .  S
C1171      H1176   1.088       .  S
C1171      C1172   1.367       .  D
C1172      C1208   1.452       .  S
C1177      C1178   1.530       .  S
C1177      C1183   1.536       .  S
C1177      C1181   1.544       .  S
C1177      C1212   1.475       .  S
C1178      H1185   1.087       .  S
C1178      C1179   1.357       .  D
C1179      C1180   1.527       .  S
C1179      C1205   1.427       .  S
C1180      C1184   1.533       .  S
C1180      C1182   1.539       .  S
C1180      H1186   1.112       .  S
C1181      H1187   1.086       .  S
C1181      C1182   1.375       .  D
C1182      C1358   1.481       .  S
C1183      H1188   1.087       .  S
C1183      C1184   1.365       .  D
C1184      C1201   1.444       .  S
C1189      C1190   1.531       .  S
C1189      C1195   1.533       .  S
C1189      C1193   1.544       .  S
C1189      C1218   1.472       .  S
C1190      H1197   1.087       .  S
C1190      C1191   1.361       .  D
C1191      C1192   1.533       .  S
C1191      C1202   1.440       .  S
C1192      C1196   1.531       .  S
C1192      C1194   1.541       .  S
C1192      H1198   1.112       .  S
C1193      H1199   1.085       .  S
C1193      C1194   1.377       .  D
C1194      C1350   1.484       .  S
C1195      H1200   1.087       .  S
C1195      C1196   1.359       .  D
C1196      C1204   1.437       .  S
C1203      C1204   1.203   1_655  T
C1205      C1206   1.197   1_455  T
C1209      C1210   1.212       .  T
C1210      C1211   1.421       .  S
C1211      C1212   1.211       .  T
C1213      C1214   1.214       .  T
C1215      C1216   1.209       .  T
C1216      C1217   1.418       .  S
C1217      C1218   1.209       .  T
C1219      C1220   1.202       .  T
C1221      C1222   1.202       .  T
C1223      C1224   1.210       .  T
C1225      C1226   1.212       .  T
C1227      C1228   1.213       .  T
C1229      C1230   1.209       .  T
C1231      C1232   1.204       .  T
C1233      C1234   1.201       .  T
C1235      C1236   1.210       .  T
C1237      C1238   1.210       .  T
C1238      C1239   1.419       .  S
C1239      C1240   1.210       .  T
C1241      C1242   1.211   1_455  T
C1243      C1244   1.212       .  T
C1245      C1246   1.202       .  T
C1247      C1248   1.208       .  T
C1248      C1249   1.416       .  S
C1249      C1250   1.208       .  T
C1251      C1252   1.209   1_655  T
C1253      C1254   1.204       .  T
C1255      C1256   1.211       .  T
C1257      C1258   1.210       .  T
C1259      C1260   1.210   1_655  T
C1261      C1262   1.211       .  T
C1263      C1264   1.210       .  T
C1265      C1266   1.202       .  T
C1267      C1268   1.211   1_455  T
C1269      C1270   1.203       .  T
C1271      C1272   1.211       .  T
C1273      C1274   1.208       .  T
C1274      C1275   1.416       .  S
C1275      C1276   1.208       .  T
C1279      C1280   1.211       .  T
C1280      C1281   1.421       .  S
C1281      C1282   1.211       .  T
C1283      C1284   1.197       .  T
C1285      C1286   1.212       .  T
C1286      C1287   1.422       .  S
C1287      C1288   1.212       .  T
C1289      C1290   1.200       .  T
C1293      C1294   1.207       .  T
C1294      C1295   1.414       .  S
C1295      C1296   1.207       .  T
C1297      C1298   1.206       .  T
C1298      C1299   1.413       .  S
C1299      C1300   1.207       .  T
C1303      C1304   1.211       .  T
C1304      C1305   1.420       .  S
C1305      C1306   1.211       .  T
C1307      C1308   1.204       .  T
C1309      C1310   1.208       .  T
C1310      C1311   1.416       .  S
C1311      C1312   1.208       .  T
C1313      C1314   1.202       .  T
C1317      C1318   1.210       .  T
C1318      C1319   1.419       .  S
C1319      C1320   1.210       .  T
C1321      C1322   1.209       .  T
C1322      C1323   1.418       .  S
C1323      C1324   1.209       .  T
C1327      C1328   1.209       .  T
C1328      C1329   1.417       .  S
C1329      C1330   1.209       .  T
C1331      C1332   1.200   1_455  T
C1333      C1334   1.209       .  T
C1334      C1335   1.417       .  S
C1335      C1336   1.209       .  T
C1337      C1338   1.201   1_655  T
C1341      C1342   1.209       .  T
C1342      C1343   1.417       .  S
C1343      C1344   1.209       .  T
C1345      H1347   1.087       .  S
C1345      C1346   1.347       .  D
C1346      H1348   1.086       .  S
C1349      H1351   1.086       .  S
C1349      C1350   1.348       .  D
C1350      H1352   1.087       .  S
C1353      H1355   1.087       .  S
C1353      C1354   1.346       .  D
C1354      H1356   1.085       .  S
C1357      H1359   1.086       .  S
C1357      C1358   1.351       .  D
C1358      H1360   1.084       .  S
C1361      H1363   1.085       .  S
C1361      C1362   1.352       .  D
C1362      H1364   1.086       .  S
C1365      H1367   1.087       .  S
C1365      C1366   1.342       .  D
C1366      H1368   1.086       .  S
C1369      H1371   1.087       .  S
C1369      C1370   1.342       .  D
C1370      H1372   1.086       .  S
C1373      H1375   1.085       .  S
C1373      C1374   1.356       .  D
C1374      H1376   1.085       .  S
C1377      H1379   1.087       .  S
C1377      C1378   1.342       .  D
C1378      H1380   1.086       .  S
C1381      H1383   1.085       .  S
C1381      C1382   1.354       .  D
C1382      H1384   1.084       .  S
C1385      H1387   1.088       .  S
C1385      C1386   1.346       .  D
C1386      H1388   1.086       .  S
C1389      H1391   1.085       .  S
C1389      C1390   1.350       .  D
C1390      H1392   1.084       .  S
C1393      H1395   1.085       .  S
C1393      C1394   1.350       .  D
C1394      H1396   1.087       .  S
C1397      H1399   1.086       .  S
C1397      C1398   1.355       .  D
C1398      H1400   1.084       .  S
C1401      H1403   1.085       .  S
C1401      C1402   1.349       .  D
C1402      H1404   1.085       .  S
C1405      H1407   1.088       .  S
C1405      C1406   1.340       .  D
C1406      H1408   1.086       .  S
