geometry optimzed in LAMMPS
_audit_creation_date              2020-11-30 
_audit_creation_method            'lammps2cif' 
_symmetry_space_group_name_H-M    'P1' 
_symmetry_Int_Tables_number       1 
_symmetry_cell_setting            triclinic 
loop_ 
_symmetry_equiv_pos_as_xyz 
  x,y,z 
_cell_length_a                    27.9711235 
_cell_length_b                    27.625401193813317 
_cell_length_c                    28.131905654310927 
_cell_angle_alpha                 90.56686793146253 
_cell_angle_beta                  90.16091427380591 
_cell_angle_gamma                 90.36572518606405 
loop_ 
_atom_site_label 
_atom_site_type_symbol 
_atom_site_fract_x 
_atom_site_fract_y 
_atom_site_fract_z 
_atom_site_charge 
C1          C  0.84222769  0.83097621  0.84142346     0.86000
C2          C  0.87738736  0.80881089  0.87716695    -0.54200
C3          C  0.90552148  0.84252824  0.89949537     0.09000
C4          C  0.89762426  0.89442772  0.88395779     0.19900
C5          C  0.81535806  0.86904656  0.87097277    -0.54900
C6          C  0.84457520  0.90226138  0.89244196     0.09100
C7          C  0.87412611  0.85992544  0.80752574    -0.54400
C8          C  0.90243441  0.89333426  0.82992310     0.09600
H9          H  0.87920573  0.77110434  0.88692806     0.14200
H10         H  0.92094717  0.92151884  0.90229332    -0.00100
H11         H  0.77673076  0.86947166  0.87500826     0.14500
H12         H  0.87366962  0.85512197  0.76914413     0.14300
C13         C  0.97989694  0.97769814  0.47650477     0.42000
N14         N  0.95643659  0.92221055  0.42497703     0.00900
C15         C  0.74411081  0.91821203  0.28678827    -0.07000
H16         H  0.71994842  0.89920700  0.46835401     0.06400
C17         C  0.80602760  0.73543525  0.46030518    -0.07300
Co18       Co  0.86559303  0.94904148  0.37158281     0.74200
N19         N  0.78178038  0.91106524  0.42441472    -0.26500
Co20       Co  0.78081727  0.85558522  0.37349709     0.74100
C21         C  0.75964421  0.74963360  0.48076948     0.42100
N22         N  0.92405813  0.77732825  0.42703314     0.00500
N23         N  0.78207730  0.80145608  0.42695506     0.00600
N24         N  0.79726420  0.97973999  0.28828244    -0.47300
H25         H  0.91316457  0.02358602  0.46013389     0.06400
N26         N  0.81421806  0.94606596  0.42346529     0.00900
N27         N  0.78499365  0.80010807  0.32264674     0.00700
C28         C  0.76992300  0.74867026  0.26757707     0.42300
N29         N  0.95642730  0.81231172  0.42671137    -0.26000
C30         C  0.92398464  0.97535128  0.28267089    -0.06900
N31         N  0.99142287  0.93471887  0.45539118    -0.47100
N32         N  0.75353793  0.78932387  0.28891233    -0.47300
C33         C  0.96728815  0.95733983  0.26065068     0.42000
N34         N  0.80924673  0.94574837  0.31965574     0.00900
N35         N  0.96001859  0.80622320  0.32370519    -0.26000
N36         N  0.92196823  0.95470952  0.42357074    -0.26500
N37         N  0.92763111  0.77119398  0.32298753     0.00500
H38         H  0.02681127  0.81565719  0.28607805     0.06400
H39         H  0.83670306  0.70394052  0.28468280     0.06500
N40         N  0.77799011  0.90963569  0.32014189    -0.26500
N41         N  0.81683884  0.76926226  0.42738058    -0.26100
N42         N  0.95208082  0.91434471  0.32091007     0.00900
C43         C  0.76865994  0.96589924  0.48069965     0.42300
C44         C  0.98997720  0.80260434  0.45884045    -0.07400
N45         N  0.82023305  0.76856668  0.32427915    -0.26100
H46         H  0.82650419  0.70311463  0.46697739     0.06500
N47         N  0.80732048  0.97978605  0.45608346    -0.47400
H48         H  0.02287734  0.82284998  0.46375662     0.06400
C49         C  0.97989444  0.74871591  0.26941384     0.42100
C50         C  0.93339278  0.99072072  0.45496971    -0.06900
Co51       Co  0.95686973  0.86398028  0.37431366     0.73800
N52         N  0.93439213  0.74274724  0.45706577    -0.47100
C53         C  0.75684940  0.96483318  0.26505142     0.42400
N54         N  0.98337214  0.92018994  0.28652763    -0.47100
Co55       Co  0.87226980  0.77114878  0.37547655     0.73900
C56         C  0.81396181  0.73489844  0.29071540    -0.07400
C57         C  0.75148735  0.92027783  0.45997560    -0.06900
N58         N  0.91732806  0.94644761  0.31971830    -0.26500
N59         N  0.74738277  0.79088365  0.45779524    -0.47200
H60         H  0.71240394  0.89634288  0.28085300     0.06400
C61         C  0.99444246  0.79493225  0.29180387    -0.07400
Cl62       Cl  0.86883160  0.85996529  0.37379109    -0.50400
C63         C  0.97548938  0.75597725  0.47832535     0.42200
H64         H  0.90253525  0.00643422  0.27377109     0.06400
N65         N  0.93837410  0.73615918  0.29159310    -0.47100
C66         C  0.76922479  0.49001658  0.95086058     0.42000
N67         N  0.78293740  0.42251413  0.91581611     0.00900
C68         C  0.99001717  0.29047576  0.92496943    -0.07000
H69         H  0.02400822  0.46942778  0.90044661     0.06400
C70         C  0.91905869  0.44889181  0.73833280    -0.07300
Co71       Co  0.87200126  0.37687253  0.95178539     0.74200
N72         N  0.95788624  0.42981958  0.91186784    -0.26500
Co73       Co  0.95569203  0.37321425  0.85950237     0.74100
C74         C  0.96379976  0.47298580  0.75050919     0.42100
N75         N  0.80469097  0.41202356  0.77630701     0.00500
N76         N  0.94790075  0.42178158  0.80436640     0.00600
N77         N  0.93510122  0.29469000  0.98391698    -0.47300
H78         H  0.83554479  0.48146948  0.99946284     0.06400
N79         N  0.92617904  0.43139661  0.94659911     0.00900
N80         N  0.95649863  0.31700347  0.80646146     0.00700
C81         C  0.97988266  0.26382624  0.75347407     0.42300
N82         N  0.77224860  0.41120957  0.81027278    -0.26000
C83         C  0.80744676  0.29490275  0.99875926    -0.06900
N84         N  0.75279326  0.45895807  0.91724799    -0.47100
N85         N  0.99329432  0.28918621  0.79324818    -0.47300
C86         C  0.76232241  0.26923744  0.98744845     0.42000
N87         N  0.92586087  0.32575555  0.94994755     0.00900
N88         N  0.78206725  0.30613522  0.82127130    -0.26000
N89         N  0.81813806  0.42751042  0.94693557    -0.26500
N90         N  0.81452499  0.30605350  0.78729073     0.00500
H91         H  0.72377782  0.25752240  0.83739899     0.06400
H92         H  0.90970191  0.27163487  0.71164243     0.06500
N93         N  0.95765181  0.32432436  0.91517878    -0.26500
N94         N  0.91234609  0.41752682  0.77349273    -0.26100
N95         N  0.78328139  0.31660221  0.92888737     0.00900
C96         C  0.97838904  0.48758294  0.96645617     0.42300
C97         C  0.73631636  0.44130934  0.79779800    -0.07400
N98         N  0.92017696  0.31302624  0.77653470    -0.26100
H99         H  0.89784052  0.45091177  0.70621949     0.06500
N100        N  0.93737265  0.46466901  0.97969952    -0.47400
H101        H  0.70394159  0.44710590  0.81793818     0.06400
C102        C  0.77453098  0.24093083  0.77475920     0.42100
C103        C  0.81233893  0.46881051  0.97117206    -0.06900
Co104      Co  0.77916910  0.36381962  0.86922416     0.73800
N105        N  0.79285999  0.44179218  0.74099921    -0.47100
C106        C  0.97493306  0.27117524  0.97066406     0.42400
N107        N  0.74981668  0.28526514  0.94348348    -0.47100
Co108      Co  0.86259128  0.36226898  0.77801353     0.73900
C109        C  0.93119164  0.27988002  0.74273826    -0.07400
C110        C  0.99187294  0.46403242  0.92107120    -0.06900
N111        N  0.81775306  0.32282223  0.96064387    -0.26500
N112        N  0.98004448  0.45406837  0.79138848    -0.47200
H113        H  0.02143164  0.28264201  0.90401157     0.06400
C114        C  0.75472864  0.26637770  0.81614214    -0.07400
Cl115      Cl  0.86744703  0.36896639  0.86467367    -0.50400
C116        C  0.74999052  0.46221109  0.75173672     0.42200
H117        H  0.82776710  0.29435725  0.03151308     0.06400
N118        N  0.81114514  0.26804751  0.75893458    -0.47100
C119        C  0.48383502  0.98307655  0.97512220     0.42000
N120        N  0.42750305  0.96419574  0.92347436     0.00900
C121        C  0.28677141  0.75030168  0.92697433    -0.07000
H122        H  0.47049360  0.72892921  0.89751207     0.06400
C123        C  0.45317988  0.80920551  0.73836559    -0.07300
Co124      Co  0.37184558  0.87431003  0.95135968     0.74200
N125        N  0.42432529  0.78873913  0.91271544    -0.26500
Co126      Co  0.37075163  0.78710097  0.86118159     0.74100
C127        C  0.47292172  0.76180518  0.75095407     0.42100
N128        N  0.42700785  0.92756828  0.78208606     0.00500
N129        N  0.42148157  0.78569888  0.80459240     0.00600
N130        N  0.28906410  0.80577848  0.98611430    -0.47300
H131        H  0.46514053  0.91619077  0.01987569     0.06400
N132        N  0.42414048  0.82213550  0.94667141     0.00900
N133        N  0.31709594  0.79309334  0.81123791     0.00700
C134        C  0.25172559  0.78264533  0.77349217     0.42300
N135        N  0.42889915  0.95968228  0.81705758    -0.26000
C136        C  0.28187699  0.93539269  0.97613978    -0.06900
N137        N  0.46147051  0.99703397  0.93428862    -0.47100
N138        N  0.27877170  0.76540147  0.80900845    -0.47300
C139        C  0.26045564  0.97910777  0.95737970     0.42000
N140        N  0.31932173  0.81765760  0.95123401     0.00900
N141        N  0.32458994  0.97021068  0.80971157    -0.26000
N142        N  0.42530535  0.92934789  0.95513070    -0.26500
N143        N  0.32187016  0.93620336  0.77645623     0.00500
H144        H  0.29065104  0.04037049  0.81600424     0.06400
H145        H  0.26812897  0.84642314  0.72335101     0.06500
N146        N  0.31940183  0.78502541  0.91663139    -0.26500
N147        N  0.42158443  0.82069069  0.77301200    -0.26100
N148        N  0.32231102  0.96316398  0.91696623     0.00900
C149        C  0.48687082  0.78103706  0.96072241     0.42300
C150        C  0.47089303  0.98228324  0.81608603    -0.07400
N151        N  0.31714331  0.82747507  0.77892778    -0.26100
H152        H  0.45898542  0.82974839  0.70633713     0.06500
N153        N  0.46058244  0.81860687  0.97604100    -0.47400
H154        H  0.48246023  0.00972836  0.84125674     0.06400
C155        C  0.27134516  0.99107502  0.75183708     0.42100
C156        C  0.45928890  0.93796411  0.98867725    -0.06900
Co157      Co  0.37581804  0.96550807  0.86677377     0.73800
N158        N  0.46609174  0.92746919  0.75615923    -0.47100
C159        C  0.26628840  0.76381250  0.97329908     0.42400
N160        N  0.28775878  0.99505745  0.92157672    -0.47100
Co161      Co  0.37170561  0.87813353  0.77653024     0.73900
C162        C  0.27737016  0.82351125  0.75285368    -0.07400
C163        C  0.46239849  0.76038765  0.91898451    -0.06900
N164        N  0.32010516  0.92816099  0.94874640    -0.26500
N165        N  0.45044274  0.74942103  0.79205286    -0.47200
H166        H  0.28059715  0.71762198  0.90630776     0.06400
C167        C  0.29458031  0.00641918  0.79699168    -0.07400
Cl168      Cl  0.37227465  0.87626254  0.86400816    -0.50400
C169        C  0.49568727  0.96089197  0.77561439     0.42200
H170        H  0.27130016  0.91363878  0.00613205     0.06400
N171        N  0.29117115  0.94730193  0.74164788    -0.47100
C172        C  0.40107732  0.33362229  0.91750526     0.86000
C173        C  0.43312542  0.36916833  0.89041113    -0.54200
C174        C  0.40862063  0.39833511  0.86006305     0.09000
C175        C  0.35438918  0.38920330  0.85965129     0.19900
C176        C  0.36444201  0.36616481  0.94204461    -0.54900
C177        C  0.33971014  0.39420953  0.91152588     0.09100
C178        C  0.37266506  0.30611167  0.87939881    -0.54400
C179        C  0.34853095  0.33520804  0.84917882     0.09600
H180        H  0.47177907  0.36990942  0.89390739     0.14200
H181        H  0.33390073  0.41262840  0.83519127    -0.00100
H182        H  0.35787709  0.36893162  0.97978081     0.14500
H183        H  0.37104719  0.26682200  0.87706587     0.14300
C184        C  0.40422893  0.83982222  0.38811405     0.86000
C185        C  0.37729347  0.87559419  0.42041431    -0.54200
C186        C  0.34713080  0.90513919  0.39619803     0.09000
C187        C  0.34532228  0.89619351  0.34276559     0.19900
C188        C  0.36359131  0.81276484  0.36175016    -0.54900
C189        C  0.33331633  0.84260119  0.33805680     0.09100
C190        C  0.42800943  0.87077039  0.35014448    -0.54400
C191        C  0.39702502  0.89999808  0.32681459     0.09600
H192        H  0.38048878  0.87664157  0.45889488     0.14200
H193        H  0.32052134  0.92031387  0.32329157    -0.00100
H194        H  0.35828371  0.77390111  0.36135860     0.14500
H195        H  0.46589127  0.86923573  0.34183202     0.14300
C196        C  0.90233300  0.40523215  0.33039132     0.86000
C197        C  0.86272420  0.43427436  0.35544604    -0.54200
C198        C  0.83547954  0.40711741  0.38522343     0.09000
C199        C  0.85042096  0.35405558  0.38822401     0.19900
C200        C  0.93065350  0.38343645  0.37137142    -0.54900
C201        C  0.90347652  0.35620167  0.40102618     0.09100
C202        C  0.87611329  0.36275307  0.30653553    -0.54400
C203        C  0.84945504  0.33613804  0.33690905     0.09600
H204        H  0.85724993  0.47282232  0.35304834     0.14200
H205        H  0.82852438  0.33166666  0.41262449    -0.00100
H206        H  0.96928415  0.38637269  0.37473981     0.14500
H207        H  0.87776817  0.35484541  0.26864152     0.14300
C208        C  0.01106976  0.23168203  0.72256888     0.42000
N209        N  0.06283786  0.21133949  0.66785996     0.00900
C210        C  0.05881904  0.99442212  0.53138718    -0.07000
H211        H  0.09072191  0.97219361  0.70949815     0.06400
C212        C  0.24976037  0.06842214  0.69779082    -0.07300
Co213      Co  0.03422480  0.11867818  0.61549507     0.74200
N214        N  0.07605199  0.03493210  0.66718839    -0.26500
Co215      Co  0.12778215  0.03560461  0.61404394     0.74100
C216        C  0.23979599  0.02042378  0.71820510     0.42100
N217        N  0.20514659  0.18507495  0.66450061     0.00500
N218        N  0.18519466  0.03908441  0.66522258     0.00600
N219        N  0.99951336  0.04901988  0.53357912    -0.47300
H220        H  0.96551409  0.16380288  0.70584328     0.06400
N221        N  0.04076917  0.06657883  0.66748890     0.00900
N222        N  0.17898647  0.04226051  0.56081892     0.00700
C223        C  0.22540602  0.02979911  0.50190548     0.42300
N224        N  0.17072580  0.21750521  0.66456936    -0.26000
C225        C  0.99863414  0.17932644  0.53123487    -0.06900
N226        N  0.05167411  0.24572923  0.69971783    -0.47100
N227        N  0.18785105  0.01124046  0.52592633    -0.47300
C228        C  0.01274884  0.22507972  0.50993269     0.42000
N229        N  0.03496152  0.06168483  0.56341330     0.00900
N230        N  0.17118251  0.21894199  0.56077423    -0.26000
N231        N  0.03139820  0.17536257  0.66732523    -0.26500
N232        N  0.20644131  0.18733962  0.56042855     0.00500
H233        H  0.15934158  0.28441095  0.52040352     0.06400
H234        H  0.26918114  0.09882202  0.51792073     0.06500
N235        N  0.07029365  0.03004786  0.56316738    -0.26500
N236        N  0.21489856  0.07653359  0.66523950    -0.26100
N237        N  0.06353405  0.20732823  0.56348770     0.00900
C238        C  0.02479698  0.01948947  0.72505681     0.42300
C239        C  0.18102781  0.25176576  0.69698358    -0.07400
N240        N  0.20936616  0.07906298  0.56136814    -0.26100
H241        H  0.28062769  0.09148718  0.70377286     0.06500
N242        N  0.00901698  0.05813429  0.70101083    -0.47400
H243        H  0.16083247  0.28451375  0.70293543     0.06400
C244        C  0.22676649  0.23888623  0.50503905     0.42100
C245        C  0.99737622  0.18529639  0.70000745    -0.06900
Co246      Co  0.11680410  0.21444855  0.61420630     0.73800
N247        N  0.23937878  0.19535689  0.69511358    -0.47100
C248        C  0.01149855  0.00678595  0.51129168     0.42400
N249        N  0.05295532  0.24041546  0.53187989    -0.47100
Co250      Co  0.20931803  0.13194304  0.61305166     0.73900
C251        C  0.23968964  0.07457392  0.52535672    -0.07400
C252        C  0.06913192  0.00369581  0.70258023    -0.06900
N253        N  0.03210588  0.17143222  0.56410490    -0.26500
N254        N  0.19935457  0.00463943  0.69533506    -0.47200
H255        H  0.07960273  0.96212381  0.52508358     0.06400
C256        C  0.18068821  0.25267487  0.52709406    -0.07400
Cl257      Cl  0.12200193  0.12511014  0.61422516    -0.50400
C258        C  0.22692054  0.23690897  0.71672928     0.42200
H259        H  0.96656789  0.15781253  0.52615549     0.06400
N260        N  0.23997752  0.19806329  0.52832598    -0.47100
C261        C  0.02436353  0.75052329  0.03080195     0.42000
N262        N  0.06448317  0.68500106  0.03524384     0.00900
C263        C  0.06818716  0.52338999  0.21723876    -0.07000
H264        H  0.07893916  0.70022613  0.27733907     0.06400
C265        C  0.23311962  0.71616191  0.16890661    -0.07300
Co266      Co  0.03181308  0.62393032  0.11591339     0.74200
N267        N  0.06780881  0.66855541  0.20743703    -0.26500
Co268      Co  0.12406411  0.61836031  0.19825828     0.74100
C269        C  0.21286701  0.73923319  0.21123345     0.42100
N270        N  0.20718092  0.68090677  0.05505686     0.00500
N271        N  0.17412089  0.67391541  0.19612458     0.00600
N272        N  0.00926256  0.52854893  0.16247331    -0.47300
H273        H  0.97860454  0.72986213  0.09584829     0.06400
N274        N  0.03183717  0.67040167  0.17713770     0.00900
N275        N  0.18019154  0.56725644  0.19426952     0.00700
C276        C  0.23430614  0.51521984  0.21668380     0.42300
N277        N  0.17224090  0.68230366  0.02341027    -0.26000
C278        C  0.99286578  0.54387945  0.04398841    -0.06900
N279        N  0.05979754  0.72489018  0.01036032    -0.47100
N280        N  0.19149262  0.53526532  0.22777644    -0.47300
C281        C  0.00572023  0.52473151  0.99673547     0.42000
N282        N  0.03876426  0.56571637  0.16039577     0.00900
N283        N  0.16551511  0.57770343  0.02124666    -0.26000
N284        N  0.03339240  0.68230200  0.07042993    -0.26500
N285        N  0.20070441  0.57480218  0.05271428     0.00500
H286        H  0.14584116  0.53516039  0.95958373     0.06400
H287        H  0.28212784  0.53609720  0.15304524     0.06500
N288        N  0.07340562  0.56379203  0.19230039    -0.26500
N289        N  0.20645543  0.67643882  0.16207557    -0.26100
N290        N  0.05828466  0.57880225  0.02096425     0.00900
C291        C  0.00947285  0.71656884  0.23663301     0.42300
C292        C  0.18474638  0.71443600  0.98946243    -0.07400
N293        N  0.21299692  0.57052849  0.16082078    -0.26100
H294        H  0.26292354  0.72645424  0.14689109     0.06500
N295        N  0.99603675  0.69784712  0.19354008    -0.47400
H296        H  0.16489487  0.72072426  0.95708050     0.06400
C297        C  0.21014652  0.51510581  0.00588677     0.42100
C298        C  0.00687572  0.72217369  0.07081300    -0.06900
Co299      Co  0.11493877  0.63116393  0.02423086     0.73800
N300        N  0.24327090  0.71082149  0.04415106    -0.47100
C301        C  0.02541963  0.50041475  0.19766517     0.42400
N302        N  0.04682757  0.54862443  0.98502640    -0.47100
Co303      Co  0.20798909  0.62550680  0.10758525     0.73900
C304        C  0.24879438  0.53951869  0.17213965    -0.07400
C305        C  0.05740827  0.69696704  0.24546039    -0.06900
N306        N  0.02706471  0.57677422  0.05592360    -0.26500
N307        N  0.17693500  0.71055088  0.22629048    -0.47200
H308        H  0.09000415  0.51280929  0.24714335     0.06400
C309        C  0.16899971  0.54161033  0.98986683    -0.07400
Cl310      Cl  0.11977903  0.62479839  0.11146264    -0.50400
C311        C  0.23174636  0.73451661  0.00350370     0.42200
H312        H  0.96171098  0.53546430  0.06511218     0.06400
N313        N  0.22910510  0.53789963  0.04408806    -0.47100
C314        C  0.72699429  0.99504576  0.23125083     0.42000
N315        N  0.67522447  0.04861221  0.20734954     0.00900
C316        C  0.54680124  0.05710909  0.99133930    -0.07000
H317        H  0.73269039  0.09708509  0.98068312     0.06400
C318        C  0.71286133  0.24615781  0.06734876    -0.07300
Co319      Co  0.62973129  0.02400142  0.11197573     0.74200
N320        N  0.68547525  0.07165533  0.03507641    -0.26500
Co321      Co  0.63158272  0.12172922  0.03517972     0.74100
C322        C  0.73196271  0.23662584  0.01908026     0.42100
N323        N  0.67947388  0.19315350  0.18459939     0.00500
N324        N  0.68179739  0.17956110  0.03993532     0.00600
N325        N  0.54700533  0.99418606  0.04135787    -0.47300
H326        H  0.71614989  0.95052022  0.16204573     0.06400
N327        N  0.68583430  0.03389957  0.06355449     0.00900
N328        N  0.57831037  0.17108308  0.04286030     0.00700
C329        C  0.51419294  0.20966591  0.03267760     0.42300
N330        N  0.67646818  0.15633484  0.21419054    -0.26000
C331        C  0.53530991  0.99301146  0.15839440    -0.06900
N332        N  0.70357930  0.03622372  0.24350518    -0.47100
N333        N  0.54151334  0.17464227  0.01415645    -0.47300
C334        C  0.50721381  0.00777522  0.19958182     0.42000
N335        N  0.57989680  0.02726515  0.05424386     0.00900
N336        N  0.57146663  0.16112482  0.21318095    -0.26000
N337        N  0.67764199  0.01785963  0.17115231    -0.26500
N338        N  0.57483854  0.19891193  0.18498926     0.00500
H339        H  0.52850311  0.14796242  0.27589390     0.06400
H340        H  0.52705237  0.25727888  0.09934242     0.06500
N341        N  0.58053599  0.06467815  0.02553904    -0.26500
N342        N  0.68181284  0.20943829  0.07688465    -0.26100
N343        N  0.57051175  0.05184867  0.19608865     0.00900
C344        C  0.74895093  0.02722200  0.02108341     0.42300
C345        C  0.71218120  0.15944987  0.24559869    -0.07400
N346        N  0.57718301  0.20224290  0.07877028    -0.26100
H347        H  0.71781773  0.27822080  0.08922193     0.06500
N348        N  0.72306337  0.00558948  0.05563119    -0.47400
H349        H  0.71834122  0.13515695  0.27486320     0.06400
C350        C  0.51914790  0.21989857  0.23583557     0.42100
C351        C  0.70879887  0.98249735  0.18320689    -0.06900
Co352      Co  0.62306313  0.10430229  0.20857553     0.73800
N353        N  0.71537722  0.22258134  0.19497812    -0.47100
C354        C  0.52394870  0.01003691  0.00172259     0.42400
N355        N  0.53138593  0.04448754  0.22117008    -0.47100
Co356      Co  0.62875940  0.20201131  0.13145267     0.73900
C357        C  0.53769605  0.22863624  0.07521278    -0.07400
C358        C  0.72416670  0.07104640  0.00789324    -0.06900
N359        N  0.57375892  0.02164418  0.15958042    -0.26500
N360        N  0.70997488  0.19495436  0.00478976    -0.47200
H361        H  0.53962638  0.08114490  0.96209380     0.06400
C362        C  0.53708302  0.17071710  0.24600030    -0.07400
Cl363      Cl  0.62853754  0.11303436  0.12189404    -0.50400
C364        C  0.73820749  0.20268606  0.23219163     0.42200
H365        H  0.52848405  0.96642605  0.13093328     0.06400
N366        N  0.54542248  0.23466729  0.19791175    -0.47100
C367        C  0.58422954  0.58585056  0.12583944     0.86000
C368        C  0.55986440  0.63061270  0.10468790    -0.54200
C369        C  0.59106139  0.66176503  0.08338705     0.09000
C370        C  0.64325601  0.64681941  0.08596146     0.19900
C371        C  0.61323680  0.56405155  0.08517751    -0.54900
C372        C  0.64352505  0.59613862  0.06428773     0.09100
C373        C  0.62139605  0.60828372  0.15993955    -0.54400
C374        C  0.65232285  0.63984716  0.13905882     0.09600
H375        H  0.52211165  0.63851330  0.10622324     0.14200
H376        H  0.66840186  0.67217378  0.06833090    -0.00100
H377        H  0.61052880  0.52630851  0.07418027     0.14500
H378        H  0.62192261  0.60132795  0.19788714     0.14300
C379        C  0.14316179  0.65582050  0.65398537     0.86000
C380        C  0.18221990  0.62427019  0.63153362    -0.59800
C381        C  0.16526581  0.59048369  0.60007685     0.09000
C382        C  0.11085758  0.59078337  0.59371059     0.19900
C383        C  0.11752674  0.67708827  0.61063522    -0.54900
C384        C  0.10097184  0.64280630  0.57943534     0.09100
C385        C  0.10640605  0.62131414  0.67484520    -0.54400
C386        C  0.09056988  0.58700911  0.64389251     0.09600
H387        H  0.22010186  0.62937608  0.63871274     0.14200
H388        H  0.09659007  0.56324854  0.56824569    -0.00100
H389        H  0.11113309  0.71497415  0.60409723     0.14500
H390        H  0.09303219  0.62404728  0.71097276     0.14300
C391        C  0.25656666  0.26437014  0.46696108     0.42000
N392        N  0.27954193  0.31387881  0.41069440     0.00900
C393        C  0.49810106  0.30171952  0.28405929    -0.07000
H394        H  0.51019443  0.34380100  0.46450538     0.06400
C395        C  0.43111601  0.49797434  0.44422110    -0.07300
Co396      Co  0.37151851  0.28099652  0.36274150     0.74200
N397        N  0.45305185  0.32325580  0.41711386    -0.26500
Co398      Co  0.45709576  0.37281260  0.36281504     0.74100
C399        C  0.47536915  0.48248416  0.46814084     0.42100
N400        N  0.31410358  0.45804970  0.40796551     0.00500
N401        N  0.45528565  0.43068906  0.41266422     0.00600
N402        N  0.44471685  0.24051405  0.28694869    -0.47300
H403        H  0.32320146  0.21713293  0.45510274     0.06400
N404        N  0.42112638  0.28784709  0.41741348     0.00900
N405        N  0.45567228  0.42281680  0.30855205     0.00700
C406        C  0.47294918  0.46349112  0.24692238     0.42300
N407        N  0.28151470  0.42321741  0.40766044    -0.26000
C408        C  0.31574784  0.25057801  0.27100776    -0.06900
N409        N  0.24482959  0.30500623  0.44233727    -0.47100
N410        N  0.48736212  0.42649651  0.27409735    -0.47300
C411        C  0.27439123  0.26902318  0.24505644     0.42000
N412        N  0.43045102  0.27807515  0.31384030     0.00900
N413        N  0.28043776  0.42421924  0.30390764    -0.26000
N414        N  0.31378873  0.28116627  0.41231251    -0.26500
N415        N  0.31390146  0.45820502  0.30303370     0.00500
H416        H  0.21306669  0.41678002  0.26617123     0.06400
H417        H  0.40830582  0.51381778  0.25728868     0.06500
N418        N  0.46187526  0.31399656  0.31360098    -0.26500
N419        N  0.42157170  0.46381228  0.41052045    -0.26100
N420        N  0.28761411  0.31445866  0.30573844     0.00900
C421        C  0.46241802  0.27791404  0.48047438     0.42300
C422        C  0.25137125  0.43026975  0.44361538    -0.07400
N423        N  0.42175397  0.45583362  0.30611530    -0.26100
H424        H  0.41063097  0.53053392  0.45020393     0.06500
N425        N  0.42606994  0.25916183  0.45438477    -0.47400
H426        H  0.22050704  0.40785474  0.45072023     0.06400
C427        C  0.26251694  0.48150776  0.24900345     0.42100
C428        C  0.30258026  0.24889142  0.44658535    -0.06900
Co429      Co  0.28137390  0.36872556  0.35689995     0.73800
N430        N  0.30790665  0.48936630  0.44316790    -0.47100
C431        C  0.48712461  0.25264090  0.26604963     0.42400
N432        N  0.25871558  0.30823001  0.26908188    -0.47100
Co433      Co  0.36786327  0.45991705  0.35682328     0.73900
C434        C  0.42957802  0.48322513  0.26800707    -0.07400
C435        C  0.48034719  0.32025361  0.45574885    -0.06900
N436        N  0.32130104  0.28110496  0.30785311    -0.26500
N437        N  0.48789314  0.44055505  0.44612501    -0.47200
H438        H  0.53049020  0.32265809  0.27917430     0.06400
C439        C  0.24640565  0.43611617  0.27161665    -0.07400
Cl440      Cl  0.36941618  0.37059550  0.35960179    -0.50400
C441        C  0.26934805  0.47378376  0.46758738     0.42200
H442        H  0.33721919  0.21883523  0.26445308     0.06400
N443        N  0.30439438  0.49281175  0.27143860    -0.47100
C444        C  0.71252084  0.70945460  0.73265902     0.42000
N445        N  0.69798569  0.66516225  0.67173090     0.00900
C446        C  0.50072265  0.67416062  0.52631536    -0.07000
H447        H  0.45585037  0.66149103  0.70439702     0.06400
C448        C  0.55171193  0.49844595  0.70617425    -0.07300
Co449      Co  0.61342927  0.70217566  0.61819553     0.74200
N450        N  0.52327832  0.66970244  0.66765459    -0.26500
Co451      Co  0.52500845  0.61350105  0.61586436     0.74100
C452        C  0.50892463  0.51771707  0.72828610     0.42100
N453        N  0.66815274  0.52269786  0.67014448     0.00500
N454        N  0.52603012  0.56105549  0.66845033     0.00600
N455        N  0.55935746  0.73100297  0.52943780    -0.47300
H456        H  0.64826692  0.75867219  0.71737338     0.06400
N457        N  0.55612393  0.70423439  0.66835251     0.00900
N458        N  0.52491703  0.55745399  0.56380012     0.00700
C459        C  0.50374349  0.50726322  0.50732475     0.42300
N460        N  0.70248319  0.55576259  0.66887594    -0.26000
C461        C  0.68250042  0.73776571  0.53647402    -0.06900
N462        N  0.72827898  0.67097931  0.70747135    -0.47100
N463        N  0.49191945  0.54900636  0.53025081    -0.47300
C464        C  0.72831075  0.72252436  0.51576281     0.42000
N465        N  0.56311950  0.69980130  0.56443044     0.00900
N466        N  0.69836037  0.55986613  0.56573707    -0.26000
N467        N  0.66405350  0.69828631  0.67159382    -0.26500
N468        N  0.66501958  0.52567933  0.56604975     0.00500
H469        H  0.75970165  0.57221489  0.52117098     0.06400
H470        H  0.56756077  0.45766765  0.52381851     0.06500
N471        N  0.52923245  0.66628007  0.56357953    -0.26500
N472        N  0.55965669  0.52759306  0.66939701    -0.26100
N473        N  0.70350001  0.66956449  0.56752130     0.00900
C474        C  0.50291997  0.72849805  0.72004033     0.42300
C475        C  0.73784169  0.54202646  0.69877143    -0.07400
N476        N  0.55794215  0.52350913  0.56502285    -0.26100
H477        H  0.57240458  0.46690469  0.71526266     0.06500
N478        N  0.54465674  0.74045259  0.69803096    -0.47400
H479        H  0.77186237  0.56039260  0.70311548     0.06400
C480        C  0.70872719  0.50804010  0.50691663     0.42100
C481        C  0.66994307  0.72745447  0.70904162    -0.06900
Co482      Co  0.70144695  0.61275699  0.61839884     0.73800
N483        N  0.67844890  0.48669535  0.69989957    -0.47100
C484        C  0.52144353  0.71651947  0.50323922     0.42400
N485        N  0.73886031  0.67991602  0.53726110    -0.47100
Co486      Co  0.61256241  0.52404498  0.61787379     0.73900
C487        C  0.54768088  0.49044539  0.53064920    -0.07400
C488        C  0.48879964  0.68144408  0.69931688    -0.06900
N489        N  0.67015803  0.70322498  0.56804502    -0.26500
N490        N  0.49436758  0.55601655  0.70289605    -0.47200
H491        H  0.46853720  0.65388727  0.51819352     0.06400
C492        C  0.72784804  0.55158729  0.52942105    -0.07400
Cl493      Cl  0.61314768  0.61309419  0.61766309    -0.50400
C494        C  0.72184178  0.49627477  0.72016652     0.42200
H495        H  0.66319153  0.77099086  0.53065671     0.06400
N496        N  0.67056847  0.49316282  0.53185307    -0.47100
C497        C  0.57957642  0.14953033  0.59227964     0.86000
C498        C  0.55481855  0.11391821  0.62631176    -0.54200
C499        C  0.58612975  0.08477316  0.64913060     0.09000
C500        C  0.63837801  0.09231703  0.63684151     0.19900
C501        C  0.61617484  0.17585032  0.62410510    -0.54900
C502        C  0.64726891  0.14586725  0.64641472     0.09100
C503        C  0.60878634  0.11617873  0.55938475    -0.54400
C504        C  0.63979386  0.08699969  0.58300037     0.09600
H505        H  0.51692594  0.11051490  0.63296944     0.14200
H506        H  0.66340097  0.06816057  0.65597478    -0.00100
H507        H  0.61677492  0.21482847  0.62958105     0.14500
H508        H  0.60511311  0.11520204  0.52095776     0.14300
C509        C  0.08722883  0.08211093  0.15037461     0.86000
C510        C  0.05604747  0.11710000  0.12237776    -0.54200
C511        C  0.08074684  0.14480113  0.09109143     0.09000
C512        C  0.13474933  0.13639328  0.09137881     0.19900
C513        C  0.11547247  0.05369474  0.11328358    -0.54900
C514        C  0.13941885  0.08200731  0.08201233     0.09100
C515        C  0.12476402  0.11510954  0.17461171    -0.54400
C516        C  0.14912885  0.14346438  0.14345986     0.09600
H517        H  0.01745144  0.11901091  0.12623235     0.14200
H518        H  0.15501041  0.15974962  0.06649370    -0.00100
H519        H  0.11642101  0.01438029  0.11192358     0.14500
H520        H  0.13102376  0.11866371  0.21244059     0.14300
C521        C  0.23060703  0.17497254  0.15651653    -0.26800
C522        C  0.18123697  0.18193009  0.16023634    -0.14800
C523        C  0.16327334  0.22218900  0.18570007     0.35800
C524        C  0.19515595  0.25197390  0.21047237    -0.26200
C525        C  0.24435789  0.24247234  0.21061053    -0.15400
C526        C  0.26248497  0.20522641  0.18142243     0.36900
N527        N  0.31289966  0.19753902  0.17751475    -0.89700
H528        H  0.24433838  0.14443875  0.13647463     0.18000
H529        H  0.18072480  0.28120006  0.23191578     0.18000
N530        N  0.11304913  0.23272771  0.18913405    -0.88700
H531        H  0.32228960  0.20051899  0.14172345     0.35400
H532        H  0.32012440  0.16215506  0.18817125     0.40500
H533        H  0.09233550  0.20895108  0.16871931     0.40100
H534        H  0.10771797  0.26700697  0.17463422     0.35000
C535        C  0.54011004  0.24906617  0.50720983    -0.26800
C536        C  0.49058341  0.24923037  0.51350141    -0.14800
C537        C  0.46960156  0.21921989  0.54791671     0.35800
C538        C  0.49868853  0.18737300  0.57293180    -0.26200
C539        C  0.54859061  0.18516144  0.56526862    -0.15400
C540        C  0.56929196  0.21818125  0.53246461     0.36900
N541        N  0.61964538  0.22189818  0.52319956    -0.89700
H542        H  0.55671488  0.27211478  0.48095698     0.18000
H543        H  0.48092835  0.16525040  0.59872895     0.18000
N544        N  0.41932099  0.22013422  0.55881795    -0.88700
H545        H  0.63292705  0.18973299  0.50917732     0.35400
H546        H  0.63818108  0.23191689  0.55395875     0.40500
H547        H  0.40165236  0.24733759  0.54047210     0.40100
H548        H  0.41597667  0.22929800  0.59482309     0.35000
C549        C  0.25889181  0.55048865  0.51195833    -0.26800
C550        C  0.24638825  0.50152757  0.50601203    -0.14800
C551        C  0.21060881  0.48116034  0.53499873     0.35800
C552        C  0.18523217  0.51089721  0.56615751    -0.26200
C553        C  0.19626580  0.56012815  0.57046052    -0.15400
C554        C  0.23415688  0.58016973  0.54395070     0.36900
N555        N  0.24634423  0.63068773  0.54831265    -0.89700
H556        H  0.28683221  0.56621749  0.49031681     0.18000
H557        H  0.15650815  0.49535920  0.58690655     0.18000
N558        N  0.20009694  0.43039192  0.53355658    -0.88700
H559        H  0.27505273  0.63941692  0.52621036     0.35400
H560        H  0.21718826  0.65063544  0.53637643     0.40500
H561        H  0.16395699  0.42590109  0.52480363     0.40100
H562        H  0.20541973  0.41655784  0.56760158     0.35000
C563        C  0.57725517  0.51476302  0.17957395    -0.26800
C564        C  0.55360388  0.54759086  0.14975928    -0.14800
C565        C  0.50353540  0.54259177  0.14366346     0.35800
C566        C  0.47795254  0.51322343  0.17503475    -0.26200
C567        C  0.50155265  0.48608920  0.20955004    -0.15400
C568        C  0.55187327  0.48433830  0.20991006     0.36900
N569        N  0.57711425  0.45425719  0.24288971    -0.89700
H570        H  0.61597737  0.51469004  0.18101339     0.18000
H571        H  0.43929305  0.51167541  0.17271032     0.18000
N572        N  0.47894498  0.56518411  0.10498800    -0.88700
H573        H  0.61402033  0.45999365  0.24049884     0.35400
H574        H  0.57109621  0.41827441  0.23255661     0.40500
H575        H  0.44240586  0.55704122  0.10567203     0.40100
H576        H  0.49235072  0.55036867  0.07341041     0.35000
C577        C  0.74359192  0.27007114  0.28804464    -0.26800
C578        C  0.76628079  0.23152242  0.26513708    -0.14800
C579        C  0.81526240  0.22304458  0.27211665     0.35800
C580        C  0.84178466  0.25593075  0.29939596    -0.26200
C581        C  0.81955628  0.29646134  0.31971704    -0.15400
C582        C  0.76982160  0.30272386  0.31538910     0.36900
N583        N  0.74564925  0.34355282  0.33549130    -0.89700
H584        H  0.70561745  0.27592114  0.28296977     0.18000
H585        H  0.88012415  0.25138427  0.30268780     0.18000
N586        N  0.83895956  0.18286500  0.25014506    -0.88700
H587        H  0.76089203  0.37502967  0.32178603     0.35400
H588        H  0.75043939  0.34325193  0.37233883     0.40500
H589        H  0.83446299  0.18526384  0.21333501     0.40100
H590        H  0.82233528  0.15103149  0.26151565     0.35000
C591        C  0.00025288  0.42780983  0.23941831    -0.26800
C592        C  0.99214336  0.47599875  0.22833306    -0.14800
C593        C  0.95507622  0.50206059  0.25051512     0.35800
C594        C  0.92633305  0.47910539  0.28325042    -0.26200
C595        C  0.93404156  0.43057489  0.29522199    -0.15400
C596        C  0.97132111  0.40463270  0.27245921     0.36900
N597        N  0.97983717  0.35469949  0.28283279    -0.89700
H598        H  0.02932425  0.40827536  0.22271169     0.18000
H599        H  0.89814240  0.50040717  0.29848894     0.18000
N600        N  0.94656875  0.55236727  0.24175460    -0.88700
H601        H  0.01496649  0.35150700  0.29516057     0.35400
H602        H  0.97671277  0.33475574  0.25117947     0.40500
H603        H  0.93665568  0.55667506  0.20623563     0.40100
H604        H  0.97788900  0.57205291  0.24875213     0.35000
C605        C  0.98657987  0.30772661  0.49274562    -0.26800
C606        C  0.98171106  0.25780764  0.48388690    -0.14800
C607        C  0.94712178  0.24041092  0.45139260     0.35800
C608        C  0.91876592  0.27371429  0.42739745    -0.26200
C609        C  0.92553155  0.32346648  0.43464090    -0.15400
C610        C  0.95861128  0.34087389  0.46833699     0.36900
N611        N  0.96417498  0.39204879  0.47671225    -0.89700
H612        H  0.01241308  0.32102758  0.51858835     0.18000
H613        H  0.89348435  0.26096128  0.40076269     0.18000
N614        N  0.94226059  0.18947430  0.44141610    -0.88700
H615        H  0.99033247  0.39878040  0.50261634     0.35400
H616        H  0.93191914  0.40485481  0.49052233     0.40500
H617        H  0.97402199  0.17792752  0.42551863     0.40100
H618        H  0.91496230  0.18302598  0.41665604     0.35000
C619        C  0.79685296  0.41694926  0.46311572    -0.26800
C620        C  0.79777114  0.42821359  0.41471332    -0.14800
C621        C  0.76518205  0.46188323  0.39606153     0.35800
C622        C  0.73437223  0.48622202  0.42680436    -0.26200
C623        C  0.73554061  0.47682818  0.47538988    -0.15400
C624        C  0.76610719  0.44121648  0.49375722     0.36900
N625        N  0.76800825  0.43064032  0.54349721    -0.89700
H626        H  0.82188891  0.39117735  0.47765282     0.18000
H627        H  0.71050619  0.51348173  0.41293839     0.18000
N628        N  0.76355903  0.47168589  0.34616502    -0.88700
H629        H  0.73402079  0.41940617  0.55430371     0.35400
H630        H  0.77702821  0.46235784  0.56211458     0.40500
H631        H  0.77009142  0.50864579  0.34150380     0.40100
H632        H  0.72895752  0.46409011  0.33393245     0.35000
C633        C  0.29385175  0.83786474  0.25992163    -0.26800
C634        C  0.29498162  0.82405891  0.30765286    -0.14800
C635        C  0.26328257  0.78872902  0.32438513     0.35800
C636        C  0.23430691  0.76387845  0.29214925    -0.26200
C637        C  0.23712766  0.77338321  0.24330422    -0.15400
C638        C  0.26528338  0.81265160  0.22729821     0.36900
N639        N  0.26552054  0.82802972  0.17882284    -0.89700
H640        H  0.31756219  0.86615088  0.24736128     0.18000
H641        H  0.21171013  0.73500801  0.30536000     0.18000
N642        N  0.26149597  0.77713130  0.37388892    -0.88700
H643        H  0.23023484  0.83238196  0.16744370     0.35400
H644        H  0.28217196  0.80194120  0.15774383     0.40500
H645        H  0.26929696  0.74036970  0.37745214     0.40100
H646        H  0.22653835  0.78262749  0.38574008     0.35000
C647        C  0.44551189  0.00584132  0.26132702    -0.26800
C648        C  0.46777942  0.98182507  0.22307550    -0.14800
C649        C  0.45664040  0.93223690  0.21422785     0.35800
C650        C  0.42883562  0.90724194  0.24671041    -0.26200
C651        C  0.41252409  0.93017380  0.28779209    -0.15400
C652        C  0.41841299  0.98008534  0.29418620     0.36900
N653        N  0.40011538  0.00382405  0.33573592    -0.89700
H654        H  0.45221875  0.04400686  0.26798699     0.18000
H655        H  0.42304856  0.86864733  0.24176339     0.18000
N656        N  0.47485570  0.90495494  0.17490514    -0.88700
H657        H  0.42887210  0.01961670  0.35409611     0.35400
H658        H  0.37748980  0.03156150  0.32473923     0.40500
H659        H  0.51203675  0.90298434  0.17753203     0.40100
H660        H  0.46400897  0.92118533  0.14330726     0.35000
C661        C  0.26669727  0.93528156  0.41443562    -0.26800
C662        C  0.31628912  0.94011491  0.41968049    -0.14800
C663        C  0.33590250  0.97718093  0.44800155     0.35800
C664        C  0.30544110  0.00779428  0.47293778    -0.26200
C665        C  0.25564461  0.00141899  0.47010451    -0.15400
C666        C  0.23589377  0.96573946  0.43973603     0.36900
N667        N  0.18491801  0.96024757  0.43534477    -0.89700
H668        H  0.25213515  0.90677965  0.39181659     0.18000
H669        H  0.32111999  0.03517825  0.49605786     0.18000
N670        N  0.38667844  0.98352653  0.45162098    -0.88700
H671        H  0.17640380  0.93202091  0.41170987     0.35400
H672        H  0.17167678  0.99195255  0.42032845     0.40500
H673        H  0.39638009  0.98034902  0.48735363     0.40100
H674        H  0.39509542  0.01869722  0.44090010     0.35000
C675        C  0.44515669  0.75926316  0.40176594    -0.26800
C676        C  0.44029751  0.80860926  0.41381812    -0.14800
C677        C  0.47124874  0.82876909  0.44882266     0.35800
C678        C  0.49875417  0.79779867  0.47671557    -0.26200
C679        C  0.49774914  0.74765229  0.46876733    -0.15400
C680        C  0.47322787  0.72868016  0.42894947     0.36900
N681        N  0.47752596  0.67914487  0.41404475    -0.89700
H682        H  0.42764677  0.74373263  0.37091710     0.18000
H683        H  0.51986769  0.81280269  0.50573231     0.18000
N684        N  0.47384076  0.88026726  0.45676183    -0.88700
H685        H  0.46222747  0.65670964  0.43941640     0.35400
H686        H  0.51383587  0.67094270  0.41075701     0.40500
H687        H  0.48855371  0.89582792  0.42634649     0.40100
H688        H  0.49722260  0.88868194  0.48471246     0.35000
C689        C  0.33733252  0.27911302  0.78227964    -0.26800
C690        C  0.31811525  0.31510523  0.81155252    -0.14800
C691        C  0.26976949  0.32821470  0.80723926     0.35800
C692        C  0.24083419  0.30323241  0.77455823    -0.26200
C693        C  0.25942183  0.26527201  0.74703374    -0.15400
C694        C  0.30865734  0.25410403  0.74969789     0.36900
N695        N  0.32948990  0.21746130  0.71967995    -0.89700
H696        H  0.37486707  0.27005821  0.78544969     0.18000
H697        H  0.20322360  0.31197352  0.77231114     0.18000
N698        N  0.24963263  0.36472813  0.83774153    -0.88700
H699        H  0.36565223  0.21274452  0.72775871     0.35400
H700        H  0.32816686  0.23001843  0.68474503     0.40500
H701        H  0.24953333  0.35093598  0.87218074     0.40100
H702        H  0.21388779  0.37095479  0.82884167     0.35000
C703        C  0.26796055  0.40396743  0.95988368    -0.26800
C704        C  0.30106503  0.42452771  0.92843118    -0.14800
C705        C  0.30025962  0.47420670  0.91835822     0.35800
C706        C  0.26743055  0.50320726  0.94231483    -0.26200
C707        C  0.23727006  0.48295375  0.97642031    -0.15400
C708        C  0.23647242  0.43309160  0.98467001     0.36900
N709        N  0.20532367  0.41172283  0.01907591    -0.89700
H710        H  0.26838808  0.36545304  0.96697391     0.18000
H711        H  0.26723300  0.54196409  0.93660093     0.18000
N712        N  0.33441131  0.49527512  0.88640244    -0.88700
H713        H  0.17008848  0.42006908  0.00991653     0.35400
H714        H  0.21278844  0.42733022  0.05230257     0.40500
H715        H  0.36828660  0.49175190  0.90175618     0.40100
H716        H  0.32845192  0.53238365  0.88293914     0.35000
C717        C  0.48941143  0.23842624  0.95530341    -0.26800
C718        C  0.48070317  0.23591104  0.00407694    -0.14800
C719        C  0.44358869  0.26203095  0.02506699     0.35800
C720        C  0.41720650  0.29315817  0.99686064    -0.26200
C721        C  0.42817492  0.29907544  0.94827428    -0.15400
C722        C  0.46370733  0.26986287  0.92726555     0.36900
N723        N  0.47413706  0.27238963  0.87744769    -0.89700
H724        H  0.51788108  0.21767377  0.93901153     0.18000
H725        H  0.38815390  0.31161005  0.01384387     0.18000
N726        N  0.43310401  0.25694997  0.07483712    -0.88700
H727        H  0.51017203  0.28181322  0.87359373     0.35400
H728        H  0.46900826  0.23793291  0.86248836     0.40500
H729        H  0.42175320  0.22129949  0.08020836     0.40100
H730        H  0.40475356  0.27927712  0.08490549     0.35000
C731        C  0.41545888  0.43609508  0.78127156    -0.26800
C732        C  0.43210891  0.43315579  0.82816752    -0.14800
C733        C  0.47147504  0.46183740  0.84301954     0.35800
C734        C  0.49519847  0.49046070  0.80956836    -0.26200
C735        C  0.47936991  0.49195372  0.76239590    -0.15400
C736        C  0.43859243  0.46500507  0.74802683     0.36900
N737        N  0.42053814  0.46452398  0.70004332    -0.89700
H738        H  0.38542637  0.41402470  0.76953852     0.18000
H739        H  0.52648725  0.51133763  0.82013431     0.18000
N740        N  0.48716073  0.46184847  0.89174132    -0.88700
H741        H  0.42380155  0.42919824  0.68671335     0.35400
H742        H  0.44044134  0.48652021  0.67762009     0.40500
H743        H  0.45952631  0.47611444  0.91244015     0.40100
H744        H  0.51665923  0.48482063  0.89651143     0.35000
C745        C  0.21390809  0.70396819  0.75998746    -0.26800
C746        C  0.21454921  0.75352025  0.75064254    -0.14800
C747        C  0.18393805  0.77263219  0.71614897     0.35800
C748        C  0.15819757  0.74072050  0.68690521    -0.26200
C749        C  0.16298614  0.69012500  0.69141834    -0.15400
C750        C  0.18880525  0.67201418  0.73110486     0.36900
N751        N  0.19191360  0.62161499  0.74288315    -0.89700
H752        H  0.23567935  0.68911744  0.78817845     0.18000
H753        H  0.13570109  0.75652310  0.66034104     0.18000
N754        N  0.17984425  0.82409680  0.71028486    -0.88700
H755        H  0.20672463  0.60145838  0.71524100     0.35400
H756        H  0.15834188  0.60794388  0.75186097     0.40500
H757        H  0.16524945  0.83834266  0.74157716     0.40100
H758        H  0.15597952  0.83219168  0.68287729     0.35000
C759        C  0.18011903  0.99749341  0.98547598    -0.26800
C760        C  0.22839496  0.01012659  0.98360639    -0.14800
C761        C  0.24637436  0.05020703  0.00942499     0.35800
C762        C  0.21542357  0.07594576  0.03904180    -0.26200
C763        C  0.16780822  0.06115254  0.04361136    -0.15400
C764        C  0.14937394  0.02314704  0.01513502     0.36900
N765        N  0.09966904  0.01037434  0.01671636    -0.89700
H766        H  0.16658756  0.96701652  0.96478970     0.18000
H767        H  0.22913107  0.10550310  0.06075179     0.18000
N768        N  0.29620521  0.06313696  0.00697906    -0.88700
H769        H  0.09687292  0.97404929  0.02651850     0.35400
H770        H  0.08558843  0.01361616  0.98244369     0.40500
H771        H  0.31580113  0.03474977  0.02155697     0.40100
H772        H  0.30337391  0.09369437  0.02809323     0.35000
C773        C  0.51444867  0.76230722  0.04111897    -0.26800
C774        C  0.52144454  0.75747236  0.99185023    -0.14800
C775        C  0.55983483  0.72947902  0.97464486     0.35800
C776        C  0.58611806  0.70203706  0.00657694    -0.26200
C777        C  0.57463624  0.70231793  0.05501784    -0.15400
C778        C  0.54111734  0.73548834  0.07307568     0.36900
N779        N  0.53208943  0.74146281  0.12313255    -0.89700
H780        H  0.48655448  0.78542760  0.05511154     0.18000
H781        H  0.61310617  0.67759755  0.99294845     0.18000
N782        N  0.57312503  0.72821038  0.92552752    -0.88700
H783        H  0.53880530  0.77776372  0.13185850     0.35400
H784        H  0.55627116  0.72168255  0.14339679     0.40500
H785        H  0.57739196  0.76375236  0.91375122     0.40100
H786        H  0.54625857  0.71109350  0.90579698     0.35000
C787        C  0.54678221  0.03191505  0.76348263    -0.26800
C788        C  0.53230722  0.98560092  0.74811221    -0.14800
C789        C  0.54304585  0.96950849  0.70162910     0.35800
C790        C  0.56071505  0.00296294  0.66935671    -0.26200
C791        C  0.57104195  0.05020022  0.68405231    -0.15400
C792        C  0.56477920  0.06488869  0.73124969     0.36900
N793        N  0.57256543  0.11426404  0.74550182    -0.89700
H794        H  0.54019609  0.04453835  0.79933917     0.18000
H795        H  0.56358807  0.99304575  0.63225094     0.18000
N796        N  0.53315262  0.92050318  0.68666945    -0.88700
H797        H  0.53978652  0.12842523  0.75655162     0.35400
H798        H  0.59528785  0.11457671  0.77504878     0.40500
H799        H  0.55494117  0.89785940  0.70680902     0.40100
H800        H  0.54284983  0.91517659  0.65113977     0.35000
C801        C  0.68888590  0.14710169  0.72432233    -0.26800
C802        C  0.68534183  0.16403376  0.67766734    -0.14800
C803        C  0.71650098  0.20021759  0.66179052     0.35800
C804        C  0.74750812  0.22244999  0.69395800    -0.26200
C805        C  0.74757967  0.20945115  0.74210771    -0.15400
C806        C  0.71924412  0.16998841  0.75727560     0.36900
N807        N  0.72074062  0.15184395  0.80496795    -0.89700
H808        H  0.66711455  0.11689694  0.73553413     0.18000
H809        H  0.76980734  0.25185121  0.68137880     0.18000
N810        N  0.71645497  0.21465589  0.61301150    -0.88700
H811        H  0.68781409  0.15928761  0.82085722     0.35400
H812        H  0.74722926  0.16896704  0.82531588     0.40500
H813        H  0.75073681  0.20919906  0.59935367     0.40100
H814        H  0.70922656  0.25172300  0.61184980     0.35000
C815        C  0.03812662  0.21031808  0.98211212    -0.26800
C816        C  0.00238677  0.23955681  0.00190279    -0.14800
C817        C  0.99409330  0.23883370  0.05132829     0.35800
C818        C  0.02146896  0.20886303  0.07984803    -0.26200
C819        C  0.05642290  0.17894808  0.05996450    -0.15400
C820        C  0.06500282  0.17944701  0.01068368     0.36900
N821        N  0.09940591  0.14737807  0.98962281    -0.89700
H822        H  0.04421473  0.21039546  0.94412510     0.18000
H823        H  0.01495820  0.20859393  0.11782015     0.18000
N824        N  0.95829643  0.26860659  0.07297467    -0.88700
H825        H  0.10181124  0.15297082  0.95301411     0.35400
H826        H  0.08660331  0.11206281  0.99388474     0.40500
H827        H  0.97493234  0.29097351  0.09834384     0.40100
H828        H  0.93411925  0.24605900  0.09059736     0.35000
C829        C  0.69100810  0.52921582  0.95914075    -0.26800
C830        C  0.73970963  0.52859125  0.97133585    -0.14800
C831        C  0.75719025  0.56078919  0.00655666     0.35800
C832        C  0.72474750  0.58715853  0.03389024    -0.26200
C833        C  0.67562057  0.58186854  0.02598917    -0.15400
C834        C  0.65864112  0.55604493  0.98582702     0.36900
N835        N  0.60890498  0.55449352  0.97257107    -0.89700
H836        H  0.67726337  0.50649056  0.93054463     0.18000
H837        H  0.73780256  0.60863197  0.06373821     0.18000
N838        N  0.80733884  0.56573463  0.01582765    -0.88700
H839        H  0.60631212  0.56729065  0.93781080     0.35400
H840        H  0.58888509  0.57851774  0.99320598     0.40500
H841        H  0.81352498  0.55699269  0.05140882     0.40100
H842        H  0.81684647  0.60203868  0.01125619     0.35000
C843        C  0.04309917  0.48551544  0.71573584    -0.26800
C844        C  0.99471313  0.49803852  0.71723145    -0.14800
C845        C  0.97708409  0.53479212  0.68811765     0.35800
C846        C  0.00888228  0.56052817  0.65961655    -0.26200
C847        C  0.05774667  0.54976396  0.66009174    -0.15400
C848        C  0.07508903  0.51128316  0.68781640     0.36900
N849        N  0.12495694  0.49907253  0.69055218    -0.89700
H850        H  0.05653084  0.45650131  0.73764007     0.18000
H851        H  0.99595632  0.59155028  0.64038080     0.18000
N852        N  0.92773866  0.54823081  0.68997245    -0.88700
H853        H  0.13658984  0.50657889  0.72523159     0.35400
H854        H  0.14578969  0.52024826  0.66814755     0.40500
H855        H  0.91357670  0.54511517  0.65563887     0.40100
H856        H  0.92589604  0.58459300  0.70044081     0.35000
C857        C  0.71952736  0.74405548  0.19611239    -0.26800
C858        C  0.74331832  0.72001406  0.23257986    -0.14800
C859        C  0.74034369  0.66921901  0.23579753     0.35800
C860        C  0.71295594  0.64340917  0.20266133    -0.26200
C861        C  0.68752484  0.66755851  0.16718364    -0.15400
C862        C  0.69162639  0.71822810  0.16322999     0.36900
N863        N  0.66580766  0.74391399  0.12754715    -0.89700
H864        H  0.72196834  0.78313196  0.19361755     0.18000
H865        H  0.70996553  0.60442487  0.20587455     0.18000
N866        N  0.76267762  0.64393117  0.27406966    -0.88700
H867        H  0.64344490  0.76883200  0.14449181     0.35400
H868        H  0.69048482  0.76323145  0.10717543     0.40500
H869        H  0.78587109  0.61827860  0.25947274     0.40100
H870        H  0.73611984  0.62541491  0.29280348     0.35000
C871        C  0.06292930  0.04628753  0.22979811    -0.26800
C872        C  0.05704339  0.04883517  0.18023261    -0.14800
C873        C  0.02161687  0.01954718  0.15766755     0.35800
C874        C  0.99288742  0.98930259  0.18470144    -0.26200
C875        C  0.99912902  0.98741189  0.23359830    -0.15400
C876        C  0.03406698  0.01582587  0.25677032     0.36900
N877        N  0.03901463  0.01465815  0.30770001    -0.89700
H878        H  0.08956534  0.06747928  0.24832889     0.18000
H879        H  0.96545060  0.96740357  0.16746530     0.18000
N880        N  0.01445514  0.02077992  0.10718612    -0.88700
H881        H  0.06477248  0.03970884  0.31936853     0.35400
H882        H  0.05189102  0.98053701  0.31676251     0.40500
H883        H  0.97911033  0.03091782  0.10061902     0.40100
H884        H  0.01921776  0.98580100  0.09355167     0.35000
C885        C  0.05676130  0.72424923  0.48818766    -0.26800
C886        C  0.00773690  0.71995020  0.49754986    -0.14800
C887        C  0.98999270  0.67970758  0.52261024     0.35800
C888        C  0.02253570  0.64775879  0.54283508    -0.26200
C889        C  0.07152522  0.65683500  0.53938307    -0.15400
C890        C  0.08897246  0.69252701  0.50875424     0.36900
N891        N  0.13954092  0.69843393  0.50189355    -0.89700
H892        H  0.07027438  0.75296868  0.46594738     0.18000
H893        H  0.00975976  0.61918184  0.56556340     0.18000
N894        N  0.93946170  0.67291174  0.52950274    -0.88700
H895        H  0.14661373  0.72758194  0.47948963     0.35400
H896        H  0.15153655  0.66739942  0.48415725     0.40500
H897        H  0.92727220  0.70165050  0.55056577     0.40100
H898        H  0.93272020  0.64124578  0.54849246     0.35000
C899        C  0.70968702  0.97766046  0.54375977    -0.26800
C900        C  0.74071494  0.99841797  0.51081846    -0.14800
C901        C  0.74074909  0.04909390  0.50391628     0.35800
C902        C  0.70656659  0.07716025  0.52739718    -0.26200
C903        C  0.67432897  0.05585864  0.55886730    -0.15400
C904        C  0.67704360  0.00613287  0.56843368     0.36900
N905        N  0.64593305  0.98401156  0.60210040    -0.89700
H906        H  0.71021713  0.93897630  0.54986635     0.18000
H907        H  0.70534801  0.11588745  0.52164727     0.18000
N908        N  0.77413252  0.07171976  0.47219119    -0.88700
H909        H  0.66696045  0.96801128  0.62834514     0.35400
H910        H  0.62673719  0.95651215  0.58460744     0.40500
H911        H  0.80804890  0.06909503  0.48767172     0.40100
H912        H  0.76721538  0.10872967  0.46940588     0.35000
C913        C  0.83764100  0.93810171  0.97217154    -0.26800
C914        C  0.82640237  0.94023991  0.92364276    -0.14800
C915        C  0.79470820  0.97563478  0.90669919     0.35800
C916        C  0.77202070  0.00556570  0.93940684    -0.26200
C917        C  0.77990959  0.00062271  0.98843746    -0.15400
C918        C  0.81390242  0.96766215  0.00493159     0.36900
N919        N  0.82365149  0.96359818  0.05473223    -0.89700
H920        H  0.86307913  0.91182109  0.98490847     0.18000
H921        H  0.74604547  0.03104161  0.92613380     0.18000
N922        N  0.78368983  0.98147832  0.85707863    -0.88700
H923        H  0.86009947  0.97030598  0.06013378     0.35400
H924        H  0.81653176  0.92790195  0.06468745     0.40500
H925        H  0.80337034  0.95805022  0.83564737     0.40100
H926        H  0.79429674  0.01644240  0.84759062     0.35000
C927        C  0.98183619  0.92926272  0.81526825    -0.26800
C928        C  0.93305220  0.92731164  0.80435643    -0.14800
C929        C  0.91392600  0.95815195  0.76984086     0.35800
C930        C  0.94433479  0.98959146  0.74564624    -0.26200
C931        C  0.99366132  0.98996246  0.75495954    -0.15400
C932        C  0.01245556  0.96011342  0.79049601     0.36900
N933        N  0.06240990  0.96129720  0.80174152    -0.89700
H934        H  0.99642750  0.90605468  0.84230842     0.18000
H935        H  0.92943227  0.01261317  0.71845092     0.18000
N936        N  0.86373020  0.95782924  0.75954718    -0.88700
H937        H  0.07593427  0.92641715  0.79677692     0.35400
H938        H  0.06611041  0.97047176  0.83771767     0.40500
H939        H  0.85918411  0.94944101  0.72349492     0.40100
H940        H  0.85071059  0.99276762  0.76546671     0.35000
C941        C  0.74307370  0.78878063  0.75805969    -0.26800
C942        C  0.74354870  0.73858149  0.76349930    -0.14800
C943        C  0.77591139  0.71720924  0.79512728     0.35800
C944        C  0.80787779  0.74694774  0.82067402    -0.26200
C945        C  0.80794354  0.79766376  0.81486596    -0.15400
C946        C  0.77486778  0.81829117  0.78296050     0.36900
N947        N  0.77383987  0.86951772  0.77518694    -0.89700
H948        H  0.71903060  0.80555843  0.73297461     0.18000
H949        H  0.83250586  0.72959996  0.84436531     0.18000
N950        N  0.77629157  0.66552901  0.80093671    -0.88700
H951        H  0.73963060  0.88203245  0.78347051     0.35400
H952        H  0.77995726  0.87570289  0.73909308     0.40500
H953        H  0.74341000  0.65539135  0.81550213     0.40100
H954        H  0.80254775  0.65548955  0.82539598     0.35000
C955        C  0.98526674  0.83458754  0.93431625    -0.26800
C956        C  0.93581130  0.83041321  0.93970548    -0.14800
C957        C  0.91636318  0.81007718  0.98126458     0.35800
C958        C  0.94709240  0.78845408  0.01342050    -0.26200
C959        C  0.99641373  0.78627298  0.00467670    -0.15400
C960        C  0.01598538  0.81256457  0.96636954     0.36900
N961        N  0.06642604  0.81653366  0.95827501    -0.89700
H962        H  0.00006932  0.85163881  0.90316480     0.18000
H963        H  0.93131542  0.77015606  0.04340474     0.18000
N964        N  0.86584425  0.80840431  0.99091506    -0.88700
H965        H  0.08002402  0.78280131  0.94849635     0.35400
H966        H  0.08292901  0.82846431  0.98968922     0.40500
H967        H  0.84604614  0.82658497  0.96532814     0.40100
H968        H  0.86013300  0.82709403  0.02288528     0.35000
loop_ 
_geom_bond_atom_site_label_1 
_geom_bond_atom_site_label_2 
_geom_bond_distance 
_geom_bond_site_symmetry_2 
_ccdc_geom_bond_type 
C1            C2   1.539       .  S
C1            C7   1.535       .  S
C1            C5   1.536       .  S
C1          C945   1.515       .  S
C2            H9   1.081       .  S
C2            C3   1.363       .  D
C3            C4   1.520       .  S
C3          C956   1.454       .  S
C4            C8   1.526       .  S
C4            C6   1.520       .  S
C4           H10   1.112       .  S
C5           H11   1.087       .  S
C5            C6   1.361       .  D
C6          C914   1.456       .  S
C7           H12   1.087       .  S
C7            C8   1.361       .  D
C8          C928   1.462       .  S
C13          N31   1.363       .  A
C13          C50   1.481       .  S
C13         C248   1.535   1_665  S
N14          N31   1.340       .  A
N14          N36   1.322       .  A
N14         Co51   2.139       .  S
C15          N40   1.355       .  A
C15          C53   1.473       .  S
C15          H60   1.082       .  S
H16          C57   1.082       .  S
C17          N41   1.356       .  A
C17          C21   1.475       .  S
C17          H46   1.082       .  S
Co18         N36   2.152       .  S
Co18         N26   2.053       .  S
Co18         N58   2.059       .  S
Co18         N34   2.147       .  S
Co18        Cl62   2.464       .  S
N19          C57   1.336       .  A
N19          N26   1.322       .  A
N19         Co20   2.087       .  S
Co20         N23   2.132       .  S
Co20         N40   2.129       .  S
Co20         N27   2.090       .  S
Co20        Cl62   2.464       .  S
C21          N59   1.361       .  A
C21         C464   1.520       .  S
N22          N29   1.320       .  A
N22          N52   1.315       .  A
N22         Co55   2.052       .  S
N23          N41   1.322       .  A
N23          N59   1.336       .  A
N24          C53   1.364       .  A
N24          N34   1.339       .  A
H25          C50   1.082   1_545  S
N26          N47   1.317       .  A
N27          N45   1.321       .  A
N27          N32   1.323       .  A
C28          N32   1.351       .  A
C28          C56   1.446       .  S
C28         C858   1.457       .  S
N29          C44   1.331       .  A
N29         Co51   2.062       .  S
C30          N58   1.332       .  A
C30          C33   1.451       .  S
C30          H64   1.082   1_565  S
C33          N54   1.343       .  A
C33         C875   1.439       .  S
N34          N40   1.323       .  A
N35          C61   1.354       .  A
N35          N37   1.321       .  A
N35         Co51   2.130       .  S
N36          C50   1.360       .  A
N37          N65   1.340       .  A
N37         Co55   2.143       .  S
H38          C61   1.081   1_455  S
H39          C56   1.081       .  S
N41         Co55   2.134       .  S
N42          N54   1.317       .  A
N42          N58   1.321       .  A
N42         Co51   2.062       .  S
C43          N47   1.342       .  A
C43          C57   1.461       .  S
C43         C900   1.461       .  S
C44          C63   1.460       .  S
C44          H48   1.082   1_655  S
N45          C56   1.329       .  A
N45         Co55   2.045       .  S
C49          N65   1.364       .  A
C49          C61   1.473       .  S
C49         C291   1.524   1_655  S
Co51        Cl62   2.464       .  S
N52          C63   1.341       .  A
C53         C314   1.523       .  S
Co55        Cl62   2.457       .  S
C63         C886   1.455   1_655  S
C66          N84   1.348       .  A
C66         C103   1.461       .  S
C66         C830   1.467       .  S
N67          N84   1.318       .  A
N67          N89   1.321       .  A
N67        Co104   2.077       .  S
C68          N93   1.336       .  A
C68         C106   1.459       .  S
C68         H113   1.081   1_655  S
H69         C110   1.082   1_455  S
C70          N94   1.334       .  A
C70          C74   1.452       .  S
C70          H99   1.082       .  S
Co71         N89   2.068       .  S
Co71         N79   2.136       .  S
Co71        N111   2.139       .  S
Co71         N87   2.072       .  S
Co71       Cl115   2.461       .  S
N72         C110   1.359       .  A
N72          N79   1.322       .  A
N72         Co73   2.138       .  S
Co73         N76   2.073       .  S
Co73         N93   2.079       .  S
Co73         N80   2.143       .  S
Co73       Cl115   2.475       .  S
C74         N112   1.347       .  A
C74         C844   1.454       .  S
N75          N82   1.320       .  A
N75         N105   1.338       .  A
N75        Co108   2.132       .  S
N76          N94   1.322       .  A
N76         N112   1.317       .  A
N77         C106   1.345       .  A
N77          N87   1.317       .  A
H78         C103   1.080       .  S
N79         N100   1.337       .  A
N80          N98   1.321       .  A
N80          N85   1.340       .  A
C81          N85   1.365       .  A
C81         C109   1.467       .  S
C81         C208   1.518   1_655  S
N82          C97   1.356       .  A
N82        Co104   2.132       .  S
C83         N111   1.358       .  A
C83          C86   1.476       .  S
C83         H117   1.082   1_556  S
C86         N107   1.363       .  A
C86         C322   1.528   1_556  S
N87          N93   1.324       .  A
N88         C114   1.341       .  A
N88          N90   1.320       .  A
N88        Co104   2.080       .  S
N89         C103   1.334       .  A
N90         N118   1.315       .  A
N90        Co108   2.067       .  S
H91         C114   1.082       .  S
H92         C109   1.082       .  S
N94        Co108   2.064       .  S
N95         N107   1.339       .  A
N95         N111   1.322       .  A
N95        Co104   2.139       .  S
C96         N100   1.361       .  A
C96         C110   1.478       .  S
C96         C281   1.527   1_655  S
C97         C116   1.474       .  S
C97         H101   1.081       .  S
N98         C109   1.351       .  A
N98        Co108   2.115       .  S
C102        N118   1.344       .  A
C102        C114   1.466       .  S
C102        C805   1.463       .  S
Co104      Cl115   2.476       .  S
N105        C116   1.362       .  A
C106        C816   1.465   1_656  S
Co108      Cl115   2.446       .  S
C116        C494   1.522       .  S
C119        N137   1.367       .  A
C119        C156   1.473       .  S
C119        C354   1.532   1_566  S
N120        N137   1.342       .  A
N120        N142   1.319       .  A
N120       Co157   2.150       .  S
C121        N146   1.354       .  A
C121        C159   1.471       .  S
C121        H166   1.082       .  S
H122        C163   1.079       .  S
C123        N147   1.354       .  A
C123        C127   1.470       .  S
C123        H152   1.082       .  S
Co124       N142   2.127       .  S
Co124       N132   2.064       .  S
Co124       N164   2.084       .  S
Co124       N140   2.140       .  S
Co124      Cl168   2.459       .  S
N125        C163   1.338       .  A
N125        N132   1.321       .  A
N125       Co126   2.082       .  S
Co126       N129   2.136       .  S
Co126       N146   2.124       .  S
Co126       N133   2.062       .  S
Co126      Cl168   2.464       .  S
C127        N165   1.363       .  A
C127        C474   1.518       .  S
N128        N135   1.319       .  A
N128        N158   1.316       .  A
N128       Co161   2.061       .  S
N129        N147   1.319       .  A
N129        N165   1.338       .  A
N130        C159   1.364       .  A
N130        N140   1.340       .  A
H131        C156   1.082   1_554  S
N132        N153   1.315       .  A
N133        N151   1.321       .  A
N133        N138   1.314       .  A
C134        N138   1.344       .  A
C134        C162   1.460       .  S
C134        C746   1.455       .  S
N135        C150   1.327       .  A
N135       Co157   2.049       .  S
C136        N164   1.335       .  A
C136        C139   1.455       .  S
C136        H170   1.082   1_556  S
C139        N160   1.342       .  A
C139        C760   1.444   1_565  S
N140        N146   1.320       .  A
N141        C167   1.360   1_565  A
N141        N143   1.321       .  A
N141       Co157   2.154       .  S
N142        C156   1.356       .  A
N143        N171   1.340       .  A
N143       Co161   2.132       .  S
H144        C167   1.081       .  S
H145        C162   1.081       .  S
N147       Co161   2.121       .  S
N148        N160   1.318       .  A
N148        N164   1.325       .  A
N148       Co157   2.062       .  S
C149        N153   1.344       .  A
C149        C163   1.466       .  S
C149        C774   1.463       .  S
C150        C169   1.457       .  S
C150        H154   1.080   1_565  S
N151        C162   1.334       .  A
N151       Co161   2.066       .  S
C155        N171   1.362       .  A
C155        C167   1.482   1_565  S
C155        C216   1.533   1_565  S
Co157      Cl168   2.467       .  S
N158        C169   1.347       .  A
C159        C311   1.523   1_556  S
Co161      Cl168   2.462       .  S
C169        C788   1.456       .  S
C172        C173   1.535       .  S
C172        C178   1.526       .  S
C172        C176   1.529       .  S
C172        C721   1.502       .  S
C173        H180   1.085       .  S
C173        C174   1.366       .  D
C174        C175   1.536       .  S
C174        C732   1.475       .  S
C175        C179   1.525       .  S
C175        C177   1.522       .  S
C175        H181   1.110       .  S
C176        H182   1.080       .  S
C176        C177   1.354       .  D
C177        C704   1.450       .  S
C178        H183   1.087       .  S
C178        C179   1.357       .  D
C179        C690   1.459       .  S
C184        C185   1.538       .  S
C184        C190   1.526       .  S
C184        C188   1.541       .  S
C184        C676   1.518       .  S
C185        H192   1.086       .  S
C185        C186   1.363       .  D
C186        C187   1.522       .  S
C186        C662   1.454       .  S
C187        C191   1.519       .  S
C187        C189   1.520       .  S
C187        H193   1.112       .  S
C188        H194   1.083       .  S
C188        C189   1.363       .  D
C189        C634   1.457       .  S
C190        H195   1.087       .  S
C190        C191   1.360       .  D
C191        C651   1.451       .  S
C196        C197   1.540       .  S
C196        C202   1.528       .  S
C196        C200   1.528       .  S
C196        C595   1.505       .  S
C197        H204   1.080       .  S
C197        C198   1.362       .  D
C198        C199   1.530       .  S
C198        C620   1.464       .  S
C199        C203   1.522       .  S
C199        C201   1.527       .  S
C199        H205   1.111       .  S
C200        H206   1.087       .  S
C200        C201   1.360       .  D
C201        C609   1.454       .  S
C202        H207   1.087       .  S
C202        C203   1.355       .  D
C203        C581   1.453       .  S
C208        N226   1.363       .  A
C208        C245   1.472   1_455  S
N209        N226   1.339       .  A
N209        N231   1.323       .  A
N209       Co246   2.140       .  S
C210        N235   1.359   1_565  A
C210        C248   1.481   1_565  S
C210        H255   1.081       .  S
H211        C252   1.081   1_565  S
C212        N236   1.357       .  A
C212        C216   1.475       .  S
C212        H241   1.082       .  S
Co213       N231   2.131       .  S
Co213       N221   2.071       .  S
Co213       N253   2.064       .  S
Co213       N229   2.140       .  S
Co213      Cl257   2.461       .  S
N214        C252   1.338       .  A
N214        N221   1.323       .  A
N214       Co215   2.084       .  S
Co215       N218   2.155       .  S
Co215       N235   2.153       .  S
Co215       N222   2.084       .  S
Co215      Cl257   2.479       .  S
C216        N254   1.367       .  A
N217        N224   1.319       .  A
N217        N247   1.314       .  A
N217       Co250   2.055       .  S
N218        N236   1.323       .  A
N218        N254   1.341       .  A
N219        C248   1.363   1_655  A
N219        N229   1.340   1_655  A
H220        C245   1.082       .  S
N221        N242   1.319       .  A
N222        N240   1.321       .  A
N222        N227   1.322       .  A
C223        N227   1.352       .  A
C223        C251   1.449       .  S
C223        C665   1.459       .  S
N224        C239   1.337       .  A
N224       Co246   2.067       .  S
C225        N253   1.335   1_655  A
C225        C228   1.457   1_655  S
C225        H259   1.081       .  S
C228        N249   1.345       .  A
C228        C606   1.459   1_455  S
N229        N235   1.323       .  A
N230        C256   1.361       .  A
N230        N232   1.321       .  A
N230       Co246   2.145       .  S
N231        C245   1.353   1_455  A
N232        N260   1.338       .  A
N232       Co250   2.141       .  S
H233        C256   1.082       .  S
H234        C251   1.081       .  S
N236       Co250   2.138       .  S
N237        N249   1.316       .  A
N237        N253   1.321       .  A
N237       Co246   2.067       .  S
C238        N242   1.346       .  A
C238        C252   1.461       .  S
C238        C931   1.463   1_445  S
C239        C258   1.460       .  S
C239        H243   1.081       .  S
N240        C251   1.328       .  A
N240       Co250   2.051       .  S
C244        N260   1.362       .  A
C244        C256   1.482       .  S
C244        C391   1.533       .  S
Co246      Cl257   2.473       .  S
N247        C258   1.342       .  A
Co250      Cl257   2.449       .  S
C258        C693   1.463       .  S
C261        N279   1.349       .  A
C261        C298   1.461       .  S
C261        C959   1.466   1_455  S
N262        N279   1.318       .  A
N262        N284   1.322       .  A
N262       Co299   2.078       .  S
C263        N288   1.332       .  A
C263        C301   1.455       .  S
C263        H308   1.082       .  S
H264        C305   1.082       .  S
C265        N289   1.335       .  A
C265        C269   1.462       .  S
C265        H294   1.078       .  S
Co266       N284   2.069       .  S
Co266       N274   2.138       .  S
Co266       N306   2.125       .  S
Co266       N282   2.057       .  S
Co266      Cl310   2.464       .  S
N267        C305   1.354       .  A
N267        N274   1.318       .  A
N267       Co268   2.119       .  S
Co268       N271   2.072       .  S
Co268       N288   2.068       .  S
Co268       N275   2.121       .  S
Co268      Cl310   2.453       .  S
C269        N307   1.348       .  A
C269        C637   1.462       .  S
N270        N277   1.321       .  A
N270        N300   1.339       .  A
N270       Co303   2.138       .  S
N271        N289   1.321       .  A
N271        N307   1.316       .  A
N272        C301   1.344       .  A
N272        N282   1.315       .  A
H273        C298   1.081   1_655  S
N274        N295   1.340   1_455  A
N275        N293   1.319       .  A
N275        N280   1.337       .  A
C276        N280   1.358       .  A
C276        C304   1.484       .  S
C276        C427   1.529       .  S
N277        C292   1.355   1_554  A
N277       Co299   2.130       .  S
C278        N306   1.354   1_655  A
C278        C281   1.472   1_654  S
C278        H312   1.081       .  S
C281        N302   1.365       .  A
N282        N288   1.321       .  A
N283        C309   1.329   1_554  A
N283        N285   1.325       .  A
N283       Co299   2.053       .  S
N284        C298   1.332       .  A
N285        N313   1.317       .  A
N285       Co303   2.083       .  S
H286        C309   1.081       .  S
H287        C304   1.082       .  S
N289       Co303   2.071       .  S
N290        N302   1.341   1_554  A
N290        N306   1.318       .  A
N290       Co299   2.140       .  S
C291        N295   1.364   1_455  A
C291        C305   1.471       .  S
C292        C311   1.475   1_556  S
C292        H296   1.082       .  S
N293        C304   1.361       .  A
N293       Co303   2.148       .  S
C297        N313   1.346       .  A
C297        C309   1.442   1_554  S
C297        C707   1.432   1_554  S
Co299      Cl310   2.465       .  S
N300        C311   1.362       .  A
C301        C592   1.440   1_455  S
Co303      Cl310   2.470       .  S
C314        N332   1.358   1_565  A
C314        C351   1.480       .  S
N315        N332   1.337       .  A
N315        N337   1.322       .  A
N315       Co352   2.127       .  S
C316        N341   1.359   1_556  A
C316        C354   1.477   1_556  S
C316        H361   1.081       .  S
H317        C358   1.082   1_556  S
C318        N342   1.360       .  A
C318        C322   1.482       .  S
C318        H347   1.081       .  S
Co319       N337   2.143       .  S
Co319       N327   2.099       .  S
Co319       N359   2.064       .  S
Co319       N335   2.140       .  S
Co319      Cl363   2.473       .  S
N320        C358   1.327       .  A
N320        N327   1.322       .  A
N320       Co321   2.052       .  S
Co321       N324   2.123       .  S
Co321       N341   2.135       .  S
Co321       N328   2.037       .  S
Co321      Cl363   2.455       .  S
C322        N360   1.359       .  A
N323        N330   1.323       .  A
N323        N353   1.318       .  A
N323       Co356   2.075       .  S
N324        N342   1.321       .  A
N324        N360   1.337       .  A
N325        C354   1.364   1_565  A
N325        N335   1.339   1_565  A
H326        C351   1.081       .  S
N327        N348   1.324       .  A
N328        N346   1.321       .  A
N328        N333   1.311       .  A
C329        N333   1.339       .  A
C329        C357   1.455       .  S
C329        C718   1.438       .  S
N330        C345   1.334       .  A
N330       Co352   2.071       .  S
C331        N359   1.331   1_565  A
C331        C334   1.458   1_565  S
C331        H365   1.076       .  S
C334        N355   1.353       .  A
C334        C648   1.473   1_545  S
N335        N341   1.318       .  A
N336        C362   1.361       .  A
N336        N338   1.320       .  A
N336       Co352   2.142       .  S
N337        C351   1.358   1_545  A
N338        N366   1.338       .  A
N338       Co356   2.136       .  S
H339        C362   1.081       .  S
H340        C357   1.081       .  S
N342       Co356   2.148       .  S
N343        N355   1.320       .  A
N343        N359   1.321       .  A
N343       Co352   2.084       .  S
C344        N348   1.355       .  A
C344        C358   1.450       .  S
C344        C917   1.460   1_554  S
C345        C364   1.449       .  S
C345        H349   1.081       .  S
N346        C357   1.331       .  A
N346       Co356   2.065       .  S
C350        N366   1.362       .  A
C350        C362   1.482       .  S
C350        C431   1.530       .  S
Co352      Cl363   2.458       .  S
N353        C364   1.348       .  A
Co356      Cl363   2.470       .  S
C364        C578   1.443       .  S
C367        C368   1.540       .  S
C367        C373   1.536       .  S
C367        C371   1.526       .  S
C367        C564   1.520       .  S
C368        H375   1.081       .  S
C368        C369   1.366       .  D
C369        C370   1.521       .  S
C369        C777   1.458       .  S
C370        C374   1.529       .  S
C370        C372   1.522       .  S
C370        H376   1.111       .  S
C371        H377   1.087       .  S
C371        C372   1.361       .  D
C372        C833   1.457       .  S
C373        H378   1.087       .  S
C373        C374   1.363       .  D
C374        C861   1.468       .  S
C379        C380   1.535       .  S
C379        C385   1.521       .  S
C379        C383   1.537       .  S
C379        C749   1.512       .  S
C380        H387   1.086       .  S
C380        C381   1.362       .  D
C381        C382   1.532       .  S
C381        C553   1.466       .  S
C382        C386   1.527       .  S
C382        C384   1.523       .  S
C382        H388   1.111       .  S
C383        H389   1.080       .  S
C383        C384   1.363       .  D
C384        C889   1.451       .  S
C385        H390   1.086       .  S
C385        C386   1.352       .  D
C386        C847   1.452       .  S
C391        N409   1.366       .  A
C391        C428   1.475       .  S
N392        N409   1.342       .  A
N392        N414   1.322       .  A
N392       Co429   2.153       .  S
C393        N418   1.355       .  A
C393        C431   1.473       .  S
C393        H438   1.082       .  S
H394        C435   1.081       .  S
C395        N419   1.356       .  A
C395        C399   1.475       .  S
C395        H424   1.082       .  S
Co396       N414   2.137       .  S
Co396       N404   2.075       .  S
Co396       N436   2.085       .  S
Co396       N412   2.151       .  S
Co396      Cl440   2.479       .  S
N397        C435   1.330       .  A
N397        N404   1.320       .  A
N397       Co398   2.064       .  S
Co398       N401   2.117       .  S
Co398       N418   2.129       .  S
Co398       N405   2.069       .  S
Co398      Cl440   2.454       .  S
C399        N437   1.357       .  A
C399        C459   1.512       .  S
N400        N407   1.321       .  A
N400        N430   1.321       .  A
N400       Co433   2.085       .  S
N401        N419   1.320       .  A
N401        N437   1.334       .  A
N402        C431   1.367       .  A
N402        N412   1.342       .  A
H403        C428   1.082       .  S
N404        N425   1.321       .  A
N405        N423   1.322       .  A
N405        N410   1.320       .  A
C406        N410   1.346       .  A
C406        C434   1.458       .  S
C406        C567   1.465       .  S
N407        C422   1.332       .  A
N407       Co429   2.065       .  S
C408        N436   1.338       .  A
C408        C411   1.463       .  S
C408        H442   1.081       .  S
C411        N432   1.347       .  A
C411        C525   1.468       .  S
N412        N418   1.322       .  A
N413        C439   1.358       .  A
N413        N415   1.322       .  A
N413       Co429   2.149       .  S
N414        C428   1.356       .  A
N415        N443   1.339       .  A
N415       Co433   2.134       .  S
H416        C439   1.081       .  S
H417        C434   1.082       .  S
N419       Co433   2.129       .  S
N420        N432   1.318       .  A
N420        N436   1.324       .  A
N420       Co429   2.076       .  S
C421        N425   1.350       .  A
C421        C435   1.454       .  S
C421        C536   1.460       .  S
C422        C441   1.458       .  S
C422        H426   1.079       .  S
N423        C434   1.336       .  A
N423       Co433   2.081       .  S
C427        N443   1.362       .  A
C427        C439   1.480       .  S
Co429      Cl440   2.464       .  S
N430        C441   1.351       .  A
Co433      Cl440   2.470       .  S
C441        C550   1.470       .  S
C444        N462   1.349       .  A
C444        C481   1.455       .  S
C444        C942   1.458       .  S
N445        N462   1.321       .  A
N445        N467   1.323       .  A
N445       Co482   2.077       .  S
C446        N471   1.336       .  A
C446        C484   1.461       .  S
C446        H491   1.080       .  S
H447        C488   1.081       .  S
C448        N472   1.336       .  A
C448        C452   1.452       .  S
C448        H477   1.081       .  S
Co449       N467   2.066       .  S
Co449       N457   2.139       .  S
Co449       N489   2.126       .  S
Co449       N465   2.063       .  S
Co449      Cl493   2.461       .  S
N450        C488   1.353       .  A
N450        N457   1.320       .  A
N450       Co451   2.119       .  S
Co451       N454   2.081       .  S
Co451       N471   2.084       .  S
Co451       N458   2.121       .  S
Co451      Cl493   2.466       .  S
C452        N490   1.347       .  A
C452        C735   1.456       .  S
N453        N460   1.322       .  A
N453        N483   1.339       .  A
N453       Co486   2.138       .  S
N454        N472   1.323       .  A
N454        N490   1.322       .  A
N455        C484   1.346       .  A
N455        N465   1.319       .  A
H456        C481   1.082       .  S
N457        N478   1.338       .  A
N458        N476   1.321       .  A
N458        N463   1.336       .  A
C459        N463   1.359       .  A
C459        C487   1.472       .  S
N460        C475   1.355       .  A
N460       Co482   2.131       .  S
C461        N489   1.354       .  A
C461        C464   1.471       .  S
C461        H495   1.082       .  S
C464        N485   1.362       .  A
N465        N471   1.321       .  A
N466        C492   1.334       .  A
N466        N468   1.323       .  A
N466       Co482   2.072       .  S
N467        C481   1.329       .  A
N468        N496   1.320       .  A
N468       Co486   2.072       .  S
H469        C492   1.082       .  S
H470        C487   1.082       .  S
N472       Co486   2.076       .  S
N473        N485   1.338       .  A
N473        N489   1.321       .  A
N473       Co482   2.135       .  S
C474        N478   1.363       .  A
C474        C488   1.471       .  S
C475        C494   1.473       .  S
C475        H479   1.082       .  S
N476        C487   1.353       .  A
N476       Co486   2.129       .  S
C480        N496   1.343       .  A
C480        C492   1.452       .  S
C480        C623   1.445       .  S
Co482      Cl493   2.470       .  S
N483        C494   1.363       .  A
C484        C679   1.463       .  S
Co486      Cl493   2.460       .  S
C497        C498   1.542       .  S
C497        C503   1.539       .  S
C497        C501   1.533       .  S
C497        C539   1.523       .  S
C498        H505   1.081       .  S
C498        C499   1.358       .  D
C499        C500   1.516       .  S
C499        C791   1.439       .  S
C500        C504   1.521       .  S
C500        C502   1.520       .  S
C500        H506   1.112       .  S
C501        H507   1.086       .  S
C501        C502   1.361       .  D
C502        C802   1.462       .  S
C503        H508   1.086       .  S
C503        C504   1.364       .  D
C504        C903   1.462       .  S
C509        C510   1.529       .  S
C509        C515   1.539       .  S
C509        C513   1.525       .  S
C509        C872   1.508       .  S
C510        H517   1.087       .  S
C510        C511   1.359       .  D
C511        C512   1.530       .  S
C511        C819   1.463       .  S
C512        C516   1.529       .  S
C512        C514   1.529       .  S
C512        H518   1.111       .  S
C513        H519   1.087       .  S
C513        C514   1.358       .  D
C514        C763   1.459       .  S
C515        H520   1.081       .  S
C515        C516   1.362       .  D
C516        C522   1.461       .  S
C521        H528   1.083       .  S
C521        C522   1.400       .  A
C521        C526   1.400       .  A
C522        C523   1.413       .  A
C523        C524   1.391       .  A
C523        N530   1.440       .  S
C524        H529   1.084       .  S
C524        C525   1.403       .  A
C525        C526   1.408       .  A
C526        N527   1.432       .  S
N527        H531   1.045       .  S
N527        H532   1.046       .  S
N530        H533   1.041       .  S
N530        H534   1.046       .  S
C535        H542   1.084       .  S
C535        C536   1.397       .  A
C535        C540   1.384       .  A
C536        C537   1.408       .  A
C537        C538   1.396       .  A
C537        N544   1.441       .  S
C538        H543   1.074       .  S
C538        C539   1.415       .  A
C539        C540   1.425       .  A
C540        N541   1.436       .  S
N541        H545   1.040       .  S
N541        H546   1.042       .  S
N544        H547   1.042       .  S
N544        H548   1.046       .  S
C549        H556   1.083       .  S
C549        C550   1.403       .  A
C549        C554   1.399       .  A
C550        C551   1.411       .  A
C551        C552   1.394       .  A
C551        N558   1.431       .  S
C552        H557   1.083       .  S
C552        C553   1.397       .  A
C553        C554   1.411       .  A
C554        N555   1.438       .  S
N555        H559   1.045       .  S
N555        H560   1.044       .  S
N558        H561   1.046       .  S
N558        H562   1.045       .  S
C563        H570   1.084       .  S
C563        C564   1.408       .  A
C563        C568   1.396       .  A
C564        C565   1.416       .  A
C565        C566   1.400       .  A
C565        N572   1.436       .  S
C566        H571   1.084       .  S
C566        C567   1.399       .  A
C567        C568   1.409       .  A
C568        N569   1.438       .  S
N569        H573   1.046       .  S
N569        H574   1.045       .  S
N572        H575   1.045       .  S
N572        H576   1.046       .  S
C577        H584   1.085       .  S
C577        C578   1.396       .  A
C577        C582   1.385       .  A
C578        C579   1.405       .  A
C579        C580   1.392       .  A
C579        N586   1.432       .  S
C580        H585   1.084       .  S
C580        C581   1.402       .  A
C581        C582   1.408       .  A
C582        N583   1.431       .  S
N583        H587   1.044       .  S
N583        H588   1.045       .  S
N586        H589   1.046       .  S
N586        H590   1.046       .  S
C591        H598   1.084       .  S
C591        C592   1.390   1_455  A
C591        C596   1.392   1_455  A
C592        C593   1.410       .  A
C593        C594   1.381       .  A
C593        N600   1.435       .  S
C594        H599   1.075       .  S
C594        C595   1.403       .  A
C595        C596   1.420       .  A
C596        N597   1.434       .  S
N597        H601   1.046   1_655  S
N597        H602   1.046       .  S
N600        H603   1.044       .  S
N600        H604   1.045       .  S
C605        H612   1.084   1_655  S
C605        C606   1.405       .  A
C605        C610   1.393       .  A
C606        C607   1.408       .  A
C607        C608   1.396       .  A
C607        N614   1.438       .  S
C608        H613   1.084       .  S
C608        C609   1.399       .  A
C609        C610   1.402       .  A
C610        N611   1.438       .  S
N611        H615   1.046       .  S
N611        H616   1.046       .  S
N614        H617   1.046       .  S
N614        H618   1.045       .  S
C619        H626   1.084       .  S
C619        C620   1.400       .  A
C619        C624   1.390       .  A
C620        C621   1.410       .  A
C621        C622   1.394       .  A
C621        N628   1.433       .  S
C622        H627   1.084       .  S
C622        C623   1.394       .  A
C623        C624   1.409       .  A
C624        N625   1.433       .  S
N625        H629   1.045       .  S
N625        H630   1.045       .  S
N628        H631   1.046       .  S
N628        H632   1.046       .  S
C633        H640   1.084       .  S
C633        C634   1.400       .  A
C633        C638   1.394       .  A
C634        C635   1.400       .  A
C635        C636   1.388       .  A
C635        N642   1.433       .  S
C636        H641   1.084       .  S
C636        C637   1.404       .  A
C637        C638   1.414       .  A
C638        N639   1.432       .  S
N639        H643   1.045       .  S
N639        H644   1.042       .  S
N642        H645   1.046       .  S
N642        H646   1.045       .  S
C647        H654   1.084       .  S
C647        C648   1.407   1_545  A
C647        C652   1.395   1_545  A
C648        C649   1.422       .  A
C649        C650   1.388       .  A
C649        N656   1.429       .  S
C650        H655   1.085       .  S
C650        C651   1.392       .  A
C651        C652   1.397       .  A
C652        N653   1.432   1_565  S
N653        H657   1.045       .  S
N653        H658   1.046       .  S
N656        H659   1.044       .  S
N656        H660   1.045       .  S
C661        H668   1.084       .  S
C661        C662   1.400       .  A
C661        C666   1.399       .  A
C662        C663   1.399       .  A
C663        C664   1.391   1_565  A
C663        N670   1.433       .  S
C664        H669   1.083       .  S
C664        C665   1.405       .  A
C665        C666   1.407   1_545  A
C666        N667   1.438       .  S
N667        H671   1.046       .  S
N667        H672   1.046       .  S
N670        H673   1.045       .  S
N670        H674   1.046   1_565  S
C675        H682   1.079       .  S
C675        C676   1.409       .  A
C675        C680   1.390       .  A
C676        C677   1.417       .  A
C677        C678   1.399       .  A
C677        N684   1.439       .  S
C678        H683   1.084       .  S
C678        C679   1.401       .  A
C679        C680   1.407       .  A
C680        N681   1.433       .  S
N681        H685   1.041       .  S
N681        H686   1.046       .  S
N684        H687   1.046       .  S
N684        H688   1.045       .  S
C689        H696   1.084       .  S
C689        C690   1.396       .  A
C689        C694   1.392       .  A
C690        C691   1.407       .  A
C691        C692   1.397       .  A
C691        N698   1.437       .  S
C692        H697   1.083       .  S
C692        C693   1.401       .  A
C693        C694   1.415       .  A
C694        N695   1.439       .  S
N695        H699   1.045       .  S
N695        H700   1.046       .  S
N698        H701   1.045       .  S
N698        H702   1.046       .  S
C703        H710   1.085       .  S
C703        C704   1.404       .  A
C703        C708   1.382       .  A
C704        C705   1.404       .  A
C705        C706   1.393       .  A
C705        N712   1.438       .  S
C706        H711   1.084       .  S
C706        C707   1.398       .  A
C707        C708   1.399       .  A
C708        N709   1.433   1_556  S
N709        H713   1.046       .  S
N709        H714   1.045       .  S
N712        H715   1.046       .  S
N712        H716   1.045       .  S
C717        H724   1.084       .  S
C717        C718   1.397   1_556  A
C717        C722   1.383       .  A
C718        C719   1.397       .  A
C719        C720   1.390   1_554  A
C719        N726   1.439       .  S
C720        H725   1.073   1_556  S
C720        C721   1.413       .  A
C721        C722   1.412       .  A
C722        N723   1.435       .  S
N723        H727   1.046       .  S
N723        H728   1.046       .  S
N726        H729   1.045       .  S
N726        H730   1.046       .  S
C731        H738   1.084       .  S
C731        C732   1.401       .  A
C731        C736   1.394       .  A
C732        C733   1.412       .  A
C733        C734   1.401       .  A
C733        N740   1.438       .  S
C734        H739   1.084       .  S
C734        C735   1.399       .  A
C735        C736   1.414       .  A
C736        N737   1.440       .  S
N737        H741   1.047       .  S
N737        H742   1.040       .  S
N740        H743   1.046       .  S
N740        H744   1.045       .  S
C745        H752   1.084       .  S
C745        C746   1.396       .  A
C745        C750   1.381       .  A
C746        C747   1.402       .  A
C747        C748   1.395       .  A
C747        N754   1.438       .  S
C748        H753   1.073       .  S
C748        C749   1.412       .  A
C749        C750   1.425       .  A
C750        N751   1.437       .  S
N751        H755   1.040       .  S
N751        H756   1.043       .  S
N754        H757   1.046       .  S
N754        H758   1.045       .  S
C759        H766   1.084       .  S
C759        C760   1.394   1_565  A
C759        C764   1.392   1_566  A
C760        C761   1.408   1_556  A
C761        C762   1.396       .  A
C761        N768   1.439       .  S
C762        H767   1.082       .  S
C762        C763   1.397       .  A
C763        C764   1.409       .  A
C764        N765   1.433       .  S
N765        H769   1.046   1_545  S
N765        H770   1.045   1_554  S
N768        H771   1.046       .  S
N768        H772   1.045       .  S
C773        H780   1.084       .  S
C773        C774   1.405   1_554  A
C773        C778   1.389       .  A
C774        C775   1.411       .  A
C775        C776   1.392   1_556  A
C775        N782   1.432       .  S
C776        H781   1.084   1_554  S
C776        C777   1.401       .  A
C777        C778   1.408       .  A
C778        N779   1.439       .  S
N779        H783   1.046       .  S
N779        H784   1.044       .  S
N782        H785   1.046       .  S
N782        H786   1.041       .  S
C787        H794   1.081       .  S
C787        C788   1.403   1_545  A
C787        C792   1.385       .  A
C788        C789   1.411       .  A
C789        C790   1.391   1_565  A
C789        N796   1.439       .  S
C790        H795   1.080   1_545  S
C790        C791   1.393       .  A
C791        C792   1.396       .  A
C792        N793   1.433       .  S
N793        H797   1.046       .  S
N793        H798   1.045       .  S
N796        H799   1.046       .  S
N796        H800   1.046       .  S
C801        H808   1.080       .  S
C801        C802   1.401       .  A
C801        C806   1.399       .  A
C802        C803   1.399       .  A
C803        C804   1.388       .  A
C803        N810   1.433       .  S
C804        H809   1.084       .  S
C804        C805   1.405       .  A
C805        C806   1.414       .  A
C806        N807   1.437       .  S
N807        H811   1.046       .  S
N807        H812   1.043       .  S
N810        H813   1.045       .  S
N810        H814   1.046       .  S
C815        H822   1.083       .  S
C815        C816   1.402   1_556  A
C815        C820   1.399   1_556  A
C816        C817   1.411   1_455  A
C817        C818   1.390   1_655  A
C817        N824   1.433       .  S
C818        H823   1.084       .  S
C818        C819   1.399       .  A
C819        C820   1.408       .  A
C820        N821   1.437   1_554  S
N821        H825   1.045       .  S
N821        H826   1.045       .  S
N824        H827   1.046       .  S
N824        H828   1.046       .  S
C829        H836   1.084       .  S
C829        C830   1.404       .  A
C829        C834   1.391       .  A
C830        C831   1.409   1_556  A
C831        C832   1.395       .  A
C831        N838   1.431       .  S
C832        H837   1.084       .  S
C832        C833   1.398       .  A
C833        C834   1.410   1_554  A
C834        N835   1.440       .  S
N835        H839   1.046       .  S
N835        H840   1.044       .  S
N838        H841   1.046       .  S
N838        H842   1.045       .  S
C843        H850   1.084       .  S
C843        C844   1.400   1_455  A
C843        C848   1.390       .  A
C844        C845   1.402       .  A
C845        C846   1.395   1_655  A
C845        N852   1.433       .  S
C846        H851   1.082   1_455  S
C846        C847   1.401       .  A
C847        C848   1.412       .  A
C848        N849   1.439       .  S
N849        H853   1.046       .  S
N849        H854   1.041       .  S
N852        H855   1.045       .  S
N852        H856   1.046       .  S
C857        H864   1.084       .  S
C857        C858   1.397       .  A
C857        C862   1.396       .  A
C858        C859   1.409       .  A
C859        C860   1.393       .  A
C859        N866   1.433       .  S
C860        H865   1.084       .  S
C860        C861   1.401       .  A
C861        C862   1.409       .  A
C862        N863   1.432       .  S
N863        H867   1.045       .  S
N863        H868   1.046       .  S
N866        H869   1.046       .  S
N866        H870   1.046       .  S
C871        H878   1.075       .  S
C871        C872   1.406       .  A
C871        C876   1.394       .  A
C872        C873   1.420       .  A
C873        C874   1.389   1_445  A
C873        N880   1.434       .  S
C874        H879   1.085       .  S
C874        C875   1.388       .  A
C875        C876   1.404   1_665  A
C876        N877   1.440       .  S
N877        H881   1.046       .  S
N877        H882   1.045   1_545  S
N880        H883   1.046   1_455  S
N880        H884   1.046   1_545  S
C885        H892   1.082       .  S
C885        C886   1.402       .  A
C885        C890   1.390       .  A
C886        C887   1.411   1_455  A
C887        C888   1.396   1_655  A
C887        N894   1.439       .  S
C888        H893   1.080       .  S
C888        C889   1.395       .  A
C889        C890   1.402       .  A
C890        N891   1.437       .  S
N891        H895   1.046       .  S
N891        H896   1.045       .  S
N894        H897   1.045       .  S
N894        H898   1.046       .  S
C899        H906   1.084       .  S
C899        C900   1.396       .  A
C899        C904   1.391   1_565  A
C900        C901   1.415   1_565  A
C901        C902   1.398       .  A
C901        N908   1.438       .  S
C902        H907   1.084       .  S
C902        C903   1.397       .  A
C903        C904   1.405       .  A
C904        N905   1.427   1_545  S
N905        H909   1.046       .  S
N905        H910   1.046       .  S
N908        H911   1.046       .  S
N908        H912   1.045       .  S
C913        H920   1.083       .  S
C913        C914   1.402       .  A
C913        C918   1.397   1_556  A
C914        C915   1.410       .  A
C915        C916   1.389   1_565  A
C915        N922   1.440       .  S
C916        H921   1.083       .  S
C916        C917   1.404       .  A
C917        C918   1.402   1_546  A
C918        N919   1.432       .  S
N919        H923   1.045       .  S
N919        H924   1.046       .  S
N922        H925   1.041       .  S
N922        H926   1.046   1_565  S
C927        H934   1.081       .  S
C927        C928   1.398       .  A
C927        C932   1.397   1_655  A
C928        C929   1.405       .  A
C929        C930   1.395       .  A
C929        N936   1.433       .  S
C930        H935   1.084   1_565  S
C930        C931   1.404       .  A
C931        C932   1.405   1_655  A
C932        N933   1.432       .  S
N933        H937   1.046       .  S
N933        H938   1.046       .  S
N936        H939   1.045       .  S
N936        H940   1.046       .  S
C941        H948   1.083       .  S
C941        C942   1.397       .  A
C941        C946   1.386       .  A
C942        C943   1.404       .  A
C943        C944   1.402       .  A
C943        N950   1.439       .  S
C944        H949   1.075       .  S
C944        C945   1.412       .  A
C945        C946   1.414       .  A
C946        N947   1.435       .  S
N947        H951   1.046       .  S
N947        H952   1.046       .  S
N950        H953   1.046       .  S
N950        H954   1.046       .  S
C955        H962   1.081   1_655  S
C955        C956   1.396       .  A
C955        C960   1.391   1_655  A
C956        C957   1.411       .  A
C957        C958   1.388   1_556  A
C957        N964   1.440       .  S
C958        H963   1.081       .  S
C958        C959   1.404       .  A
C959        C960   1.415   1_654  A
C960        N961   1.433       .  S
N961        H965   1.043       .  S
N961        H966   1.045       .  S
N964        H967   1.042       .  S
N964        H968   1.046   1_556  S
