geometry optimzed in LAMMPS
_audit_creation_date              2020-11-30 
_audit_creation_method            'lammps2cif' 
_symmetry_space_group_name_H-M    'P1' 
_symmetry_Int_Tables_number       1 
_symmetry_cell_setting            triclinic 
loop_ 
_symmetry_equiv_pos_as_xyz 
  x,y,z 
_cell_length_a                    51.18383011 
_cell_length_b                    51.08230500098842 
_cell_length_c                    29.380297380249512 
_cell_angle_alpha                 89.82901363065794 
_cell_angle_beta                  89.95778981529274 
_cell_angle_gamma                 120.07585270542818 
loop_ 
_atom_site_label 
_atom_site_type_symbol 
_atom_site_fract_x 
_atom_site_fract_y 
_atom_site_fract_z 
_atom_site_charge 
C1          C  0.22388359  0.22694872  0.28806648     0.80600
N2          N  0.24501972  0.25031511  0.31281787    -0.77700
C3          C  0.26963457  0.27333377  0.29242694     0.83100
N4          N  0.27270067  0.27326781  0.24652949    -0.77600
C5          C  0.25136701  0.25026400  0.22113405     0.83200
N6          N  0.22702311  0.22690137  0.24211757    -0.79300
C7          C  0.22966638  0.21844498  0.81959645     0.80600
N8          N  0.25344829  0.24052465  0.79676599    -0.77700
C9          C  0.27541923  0.26495467  0.81868861     0.83100
N10         N  0.27389211  0.26689630  0.86480576    -0.77600
C11         C  0.24994785  0.24453424  0.88820025     0.83200
N12         N  0.22780706  0.22055714  0.86525076    -0.79300
C13         C  0.24351590  0.46039797  0.28695078     0.80600
N14         N  0.22157702  0.46046508  0.31279998    -0.77700
C15         C  0.19879153  0.46278355  0.29316458     0.83100
N16         N  0.19783832  0.46458907  0.24708004    -0.77600
C17         C  0.21950310  0.46416123  0.22072991     0.83200
N18         N  0.24249335  0.46229169  0.24089562    -0.79300
C19         C  0.24332990  0.46447050  0.81762004     0.80600
N20         N  0.24100913  0.46028559  0.86329258    -0.77700
C21         C  0.21900583  0.46182823  0.88711041     0.83100
N22         N  0.19859541  0.46686729  0.86448775    -0.77600
C23         C  0.20070571  0.47078905  0.81838968     0.83200
N24         N  0.22341457  0.47005236  0.79556583    -0.79300
C25         C  0.48423421  0.23903373  0.28744174     0.80600
N26         N  0.48026367  0.23517468  0.24167342    -0.77700
C27         C  0.47987389  0.21103531  0.22131964     0.83100
N28         N  0.48263742  0.19044478  0.24716032    -0.77600
C29         C  0.48603191  0.19386625  0.29293256     0.83200
N30         N  0.48728111  0.21844387  0.31275121    -0.79300
C31         C  0.47174916  0.23086026  0.81853959     0.80600
N32         N  0.46963892  0.20671056  0.79647048    -0.77700
C33         C  0.46990709  0.18378346  0.81941902     0.83100
N34         N  0.47156043  0.18475871  0.86578329    -0.77600
C35         C  0.47284139  0.20872903  0.88846656     0.83200
N36         N  0.47322492  0.23179993  0.86456176    -0.79300
O37         O  0.42543273  0.00315442  0.49558387    -0.87800
C38         C  0.07703909  0.06918366  0.62045130     1.12300
O39         O  0.45950514  0.47951391  0.55302144    -1.35600
O40         O  0.05864296  0.07426061  0.50564321    -0.89300
O41         O  0.39778806  0.45250717  0.50375533    -0.89900
O42         O  0.46133168  0.44880845  0.45770585    -0.78700
O43         O  0.49140121  0.03885630  0.50964063    -1.00800
C44         C  0.04673545  0.47984199  0.47224130     1.22300
O45         O  0.49249016  0.44960972  0.55492608    -1.35700
Mn46       Mn  0.49099712  0.48061236  0.60334391     1.82100
O47         O  0.02384722  0.48060150  0.45900263    -0.77800
O48         O  0.08209089  0.04733582  0.50034315    -0.87200
C49         C  0.04687704  0.48394378  0.63929527     1.13400
C50         C  0.07803028  0.06880722  0.48750474     1.08100
O51         O  0.46020946  0.44846719  0.64968346    -0.78800
O52         O  0.02261452  0.01248953  0.55415631    -1.32500
O53         O  0.43305586  0.41984132  0.59645088    -0.98000
C54         C  0.49548905  0.39473696  0.49025651     1.06800
Mn55       Mn  0.06577033  0.01599923  0.55386493     1.48600
O56         O  0.46955947  0.39093036  0.49990935    -0.87200
Mn57       Mn  0.41723113  0.43857539  0.55439081     1.49600
O58         O  0.42065450  0.50320933  0.59770963    -0.91000
C59         C  0.49247527  0.03483320  0.46901806     1.20000
C60         C  0.40159586  0.47838396  0.61642354     1.12100
Mn61       Mn  0.49201748  0.48038638  0.50457295     1.81000
O62         O  0.05177684  0.48359600  0.59873917    -0.96200
Mn63       Mn  0.45616241  0.01923285  0.54965895     1.49300
C64         C  0.40333274  0.47702430  0.48416924     1.08600
Mn65       Mn  0.03317431  0.44839629  0.55822323     1.49900
C66         C  0.49261804  0.39403849  0.62219383     1.11500
O67         O  0.43310906  0.42113012  0.51100317    -1.02000
O68         O  0.08368056  0.05065816  0.60233805    -0.91700
C69         C  0.43730289  0.42603084  0.47031499     1.22800
O70         O  0.05153218  0.48109389  0.51309038    -1.02400
O71         O  0.05492005  0.07211905  0.60788786    -0.89800
O72         O  0.01791862  0.41690294  0.61181005    -0.89400
O73         O  0.39900215  0.45300439  0.60610395    -0.89400
Mn74       Mn  0.02395329  0.05476737  0.55464327     1.47900
O75         O  0.02253198  0.48225639  0.65082229    -0.77900
C76         C  0.43760136  0.42432640  0.63721265     1.15800
O77         O  0.49250890  0.01138078  0.45682480    -0.76600
O78         O  0.48909388  0.01123014  0.64876073    -0.76200
Mn79       Mn  0.45292038  0.40642134  0.55244870     1.51100
O80         O  0.01920398  0.41379701  0.51003755    -0.88600
O81         O  0.48831467  0.03894863  0.59532037    -0.96100
O82         O  0.46828134  0.38775472  0.60172981    -0.91100
C83         C  0.48723892  0.03367708  0.63613065     1.13600
C84         C  0.46678062  0.12690534  0.73169938     0.16300
C85         C  0.96594523  0.11247002  0.69099885    -0.32700
C86         C  0.47370667  0.08979860  0.69262213     0.20700
C87         C  0.48136654  0.08137257  0.73311961     0.02900
C88         C  0.48201050  0.09586396  0.77422984    -0.22400
C89         C  0.47471459  0.11904982  0.77250051     0.12100
S90         S  0.45995065  0.15608909  0.73526508    -0.06100
C91         C  0.46830803  0.15861032  0.79245131    -0.09500
C92         C  0.47542224  0.13714819  0.80791429    -0.26100
S93         S  0.49011600  0.05325036  0.72691950    -0.03300
C94         C  0.48379414  0.05345387  0.66919850    -0.16800
C95         C  0.47517264  0.07406548  0.65605744    -0.14800
H96         H  0.95983643  0.11877763  0.65921135     0.20600
H97         H  0.48840902  0.08972418  0.80588364     0.16600
H98         H  0.48186387  0.13564642  0.84249472     0.19100
H99         H  0.96987840  0.07714895  0.62154413     0.12500
C100        C  0.46341629  0.28377725  0.73558390     0.16300
C101        C  0.45549148  0.29597687  0.69914714    -0.32700
C102        C  0.47271757  0.32718391  0.69191602     0.20700
C103        C  0.49701577  0.34567788  0.71944980     0.02900
C104        C  0.50450293  0.33352974  0.75694130    -0.22400
C105        C  0.48702297  0.30210670  0.76439780     0.12100
S106        S  0.44660625  0.24610643  0.74712024    -0.06100
C107        C  0.47104088  0.25487367  0.79203720    -0.09500
C108        C  0.49120553  0.28554405  0.79765205    -0.26100
S109        S  0.51635037  0.38274588  0.70199284    -0.03300
C110        C  0.49089501  0.37294325  0.65787594    -0.16800
C111        C  0.46885794  0.34269885  0.65716948    -0.14800
H112        H  0.43709140  0.28162102  0.67666359     0.20600
H113        H  0.52345080  0.34776367  0.77862499     0.16600
H114        H  0.50876498  0.29497375  0.82319930     0.19100
H115        H  0.45143928  0.33234886  0.63151497     0.12500
C116        C  0.49346550  0.14224041  0.38053754     0.16300
C117        C  0.49732063  0.12929179  0.42001045    -0.32700
C118        C  0.49469371  0.10079305  0.41633684     0.20700
C119        C  0.48853636  0.08557729  0.37525208     0.02900
C120        C  0.48468250  0.09861915  0.33544976    -0.22400
C121        C  0.48732592  0.12733166  0.33915023     0.12100
S122        S  0.49556216  0.17656391  0.37862639    -0.06100
C123        C  0.48826854  0.17118570  0.32122178    -0.09500
C124        C  0.48433352  0.14393370  0.30478255    -0.26100
S125        S  0.48581666  0.05074747  0.37906678    -0.03300
C126        C  0.49281348  0.05701895  0.43658978    -0.16800
C127        C  0.49719800  0.08464375  0.45133969    -0.14800
H128        H  0.50201799  0.14089154  0.45236665     0.20600
H129        H  0.47973479  0.08690838  0.30318439     0.16600
H130        H  0.47940157  0.13661626  0.26971968     0.19100
H131        H  0.50160331  0.09239731  0.48627163     0.12500
C132        C  0.00990062  0.34320810  0.41277470     0.16300
C133        C  0.01990624  0.32430541  0.39522915    -0.32700
C134        C  0.00267151  0.30403009  0.36088475     0.20700
C135        C  0.47705493  0.30291763  0.34402950     0.02900
C136        C  0.46690489  0.32174418  0.36204916    -0.22400
C137        C  0.48376781  0.34142897  0.39751927     0.12100
S138        S  0.02689368  0.36794987  0.45634825    -0.06100
C139        C  0.49802509  0.37540805  0.45538589    -0.09500
C140        C  0.47654580  0.35987278  0.42199982    -0.26100
S141        S  0.45915087  0.27626554  0.30256822    -0.03300
C142        C  0.48587669  0.26552518  0.30994666    -0.16800
C143        C  0.00764603  0.28242206  0.34203500    -0.14800
H144        H  0.03981745  0.32476747  0.40872490     0.20600
H145        H  0.44634296  0.32048665  0.34988141     0.16600
H146        H  0.45645128  0.36146965  0.41666595     0.19100
H147        H  0.02576711  0.27845446  0.35187748     0.12500
C148        C  0.48003834  0.19562163  0.09336756     0.16300
C149        C  0.48327744  0.18588598  0.05018303    -0.32700
C150        C  0.47701254  0.19842476  0.01206045     0.20700
C151        C  0.46787329  0.21965291  0.01687714     0.02900
C152        C  0.96357775  0.22884827  0.05973894    -0.22400
C153        C  0.97051891  0.21683259  0.09773897     0.12100
S154        S  0.48713047  0.18363963  0.14369953    -0.06100
C155        C  0.47789761  0.20764860  0.17141146    -0.09500
C156        C  0.96922626  0.22380064  0.14246851    -0.26100
S157        S  0.96117897  0.23241709  0.96642857    -0.03300
C158        C  0.47220821  0.20954929  0.93865396    -0.16800
C159        C  0.47931709  0.19231573  0.96714289    -0.14800
H160        H  0.49063411  0.16948398  0.04646729     0.20600
H161        H  0.95602036  0.24509238  0.06351213     0.16600
H162        H  0.96239379  0.23964291  0.15378358     0.19100
H163        H  0.48624939  0.17658834  0.95565159     0.12500
C164        C  0.34723839  0.49034943  0.69149881     0.16300
C165        C  0.32855717  0.50042086  0.70967963    -0.32700
C166        C  0.30678810  0.48183939  0.74168011     0.20700
C167        C  0.30422348  0.45477449  0.75614001     0.02900
C168        C  0.32273009  0.44445998  0.73744298    -0.22400
C169        C  0.34403522  0.46273411  0.70434505     0.12100
S170        S  0.37425888  0.50938741  0.65124547    -0.06100
C171        C  0.38075357  0.47941139  0.65009631    -0.09500
C172        C  0.36313971  0.45617348  0.68035568    -0.26100
S173        S  0.27673706  0.43607758  0.79640563    -0.03300
C174        C  0.26811885  0.46457028  0.79222798    -0.16800
C175        C  0.28586966  0.48733519  0.76174636    -0.14800
H176        H  0.33040347  0.02190788  0.69744455     0.20600
H177        H  0.32035171  0.42300250  0.74775308     0.16600
H178        H  0.36390892  0.43546363  0.68399829     0.19100
H179        H  0.28358174  0.00724119  0.75383402     0.12500
C180        C  0.15312482  0.48624453  0.73331129     0.16300
C181        C  0.14176256  0.49229386  0.69392451    -0.32700
C182        C  0.11272262  0.48834513  0.69586759     0.20700
C183        C  0.09564948  0.47916247  0.73545771     0.02900
C184        C  0.10721750  0.47334123  0.77534396    -0.22400
C185        C  0.13638476  0.47697754  0.77324918     0.12100
S186        S  0.18721625  0.48821882  0.73618024    -0.06100
C187        C  0.17934662  0.47637330  0.79200954    -0.09500
C188        C  0.15148801  0.47140993  0.80744868    -0.26100
S189        S  0.06027623  0.47469369  0.72937878    -0.03300
C190        C  0.06873295  0.48481467  0.67285098    -0.16800
C191        C  0.09753773  0.49166923  0.66014436    -0.14800
H192        H  0.15479049  0.49914428  0.66267531     0.20600
H193        H  0.09388642  0.46575157  0.80624683     0.16600
H194        H  0.14248991  0.46342694  0.84123068     0.19100
H195        H  0.10668187  0.49805239  0.62603726     0.12500
C196        C  0.35658687  0.48528958  0.38839655     0.16300
C197        C  0.34378608  0.49609569  0.35650504    -0.32700
C198        C  0.31429098  0.47604821  0.34158313     0.20700
C199        C  0.29839367  0.44644240  0.35732184     0.02900
C200        C  0.31155031  0.43538804  0.38809034    -0.22400
C201        C  0.34085018  0.45554573  0.40349399     0.12100
S202        S  0.39065711  0.50688128  0.41452013    -0.06100
C203        C  0.38351868  0.47557421  0.44648983    -0.09500
C204        C  0.35637707  0.44971673  0.43626840    -0.26100
S205        S  0.26183761  0.42664526  0.33897142    -0.03300
C206        C  0.26814621  0.45839283  0.30927240    -0.16800
C207        C  0.29709312  0.48292674  0.31347602    -0.14800
H208        H  0.35581352  0.51944550  0.34523964     0.20600
H209        H  0.29900615  0.41243291  0.40097145     0.16600
H210        H  0.34776828  0.42815112  0.45348518     0.19100
H211        H  0.30460379  0.50503591  0.29872605     0.12500
C212        C  0.14560439  0.46547298  0.38295047     0.16300
C213        C  0.13159597  0.46640510  0.42330087    -0.32700
C214        C  0.10671942  0.47068846  0.41981488     0.20700
C215        C  0.09589146  0.47365410  0.37803204     0.02900
C216        C  0.10991641  0.47262480  0.33741763    -0.22400
C217        C  0.13509487  0.46856410  0.34093498     0.12100
S218        S  0.17653209  0.46121345  0.38055783    -0.06100
C219        C  0.17569995  0.46375737  0.32216368    -0.09500
C220        C  0.15230700  0.46753682  0.30575452    -0.26100
S221        S  0.06527799  0.47874539  0.38183845    -0.03300
C222        C  0.06750203  0.47713205  0.44028873    -0.16800
C223        C  0.09063369  0.47268997  0.45542772    -0.14800
H224        H  0.13991984  0.46415914  0.45611807     0.20600
H225        H  0.10173486  0.47510272  0.30462828     0.16600
H226        H  0.14833117  0.46976944  0.27013174     0.19100
H227        H  0.09543611  0.47095385  0.49086259     0.12500
C228        C  0.20445116  0.46607674  0.09252013     0.16300
C229        C  0.19318816  0.46730045  0.04942189    -0.32700
C230        C  0.20726475  0.46338729  0.01103305     0.20700
C231        C  0.23142249  0.45844480  0.01556677     0.02900
C232        C  0.24269626  0.45730347  0.05852521    -0.22400
C233        C  0.22870866  0.46127944  0.09678106     0.12100
S234        S  0.19037695  0.46983758  0.14332657    -0.06100
C235        C  0.21750689  0.46493757  0.17058888    -0.09500
C236        C  0.23638876  0.46074434  0.14136768    -0.26100
S237        S  0.24577611  0.45466239  0.96530837    -0.03300
C238        C  0.21914146  0.45996632  0.93736266    -0.16800
C239        C  0.20003428  0.46424141  0.96611265    -0.14800
H240        H  0.17430954  0.47114669  0.04597948     0.20600
H241        H  0.26163055  0.45353757  0.06196752     0.16600
H242        H  0.25452079  0.45704667  0.15215503     0.19100
H243        H  0.18225724  0.46833632  0.95481029     0.12500
C244        C  0.33063983  0.31959641  0.72976353     0.16300
C245        C  0.34454911  0.33409318  0.68913450    -0.32700
C246        C  0.37289706  0.36010953  0.69185431     0.20700
C247        C  0.38710430  0.37140864  0.73318300     0.02900
C248        C  0.37311346  0.35670436  0.77424410    -0.22400
C249        C  0.34439257  0.33051153  0.77153611     0.12100
S250        S  0.29623440  0.28787860  0.73249731    -0.06100
C251        C  0.29978564  0.28880713  0.79084236    -0.09500
C252        C  0.32659432  0.31285786  0.80712509    -0.26100
S253        S  0.42149083  0.40391545  0.72816893    -0.03300
C254        C  0.41620024  0.40193066  0.66995970    -0.16800
C255        C  0.38940310  0.37730302  0.65575587    -0.14800
H256        H  0.33361062  0.32550715  0.65665320     0.20600
H257        H  0.38398131  0.36537910  0.80671452     0.16600
H258        H  0.33276741  0.31702178  0.84270275     0.19100
H259        H  0.38211781  0.37240930  0.62064797     0.12500
C260        C  0.18122908  0.15262367  0.74082656     0.16300
C261        C  0.17087209  0.13113295  0.70609223    -0.32700
C262        C  0.14017556  0.11681327  0.69532487     0.20700
C263        C  0.12047974  0.12347444  0.71808806     0.02900
C264        C  0.13068421  0.14434813  0.75402139    -0.22400
C265        C  0.16155767  0.15877583  0.76480488     0.12100
S266        S  0.21820635  0.17458255  0.75516552    -0.06100
C267        C  0.20719083  0.19196361  0.79454723    -0.09500
C268        C  0.17637791  0.18112538  0.79654633    -0.26100
S269        S  0.08462613  0.10555230  0.69657715    -0.03300
C270        C  0.09646166  0.08873976  0.65708639    -0.16800
C271        C  0.12644314  0.09657704  0.66087625    -0.14800
H272        H  0.18628623  0.12652766  0.68718894     0.20600
H273        H  0.11548600  0.14981894  0.77172404     0.16600
H274        H  0.16571728  0.19023273  0.81814083     0.19700
H275        H  0.13791972  0.08884343  0.63834001     0.12500
C276        C  0.32343203  0.32958549  0.38048371     0.16300
C277        C  0.33771434  0.34450435  0.42056287    -0.32700
C278        C  0.36765104  0.36803503  0.41732974     0.20700
C279        C  0.38278454  0.37687012  0.37602259     0.02900
C280        C  0.36834053  0.36202985  0.33564009    -0.22400
C281        C  0.33836469  0.33806840  0.33895795     0.12100
S282        S  0.28775463  0.29939337  0.37814927    -0.06100
C283        C  0.29283719  0.29771812  0.32052842    -0.09500
C284        C  0.32076457  0.31989782  0.30418480    -0.26100
S285        S  0.41935710  0.40595385  0.38016017    -0.03300
C286        C  0.41401363  0.40565563  0.43813309    -0.16800
C287        C  0.38538499  0.38434765  0.45288342    -0.14800
H288        H  0.32616811  0.33766645  0.45305902     0.20600
H289        H  0.38006752  0.36851090  0.30327572     0.16600
H290        H  0.32808902  0.32205890  0.26909943     0.19100
H291        H  0.37789761  0.38094331  0.48801316     0.12500
C292        C  0.15687770  0.17445024  0.36339585     0.16300
C293        C  0.13410486  0.16259023  0.39651474    -0.32700
C294        C  0.12263717  0.13242460  0.40979299     0.20700
C295        C  0.13324840  0.11467688  0.39085373     0.02900
C296        C  0.15552028  0.12631379  0.35664528    -0.22400
C297        C  0.16710890  0.15665252  0.34341656     0.12100
S298        S  0.17571033  0.21139851  0.34661876    -0.06100
C299        C  0.19729550  0.20287620  0.31154227    -0.09500
C300        C  0.19016708  0.17284768  0.31292070    -0.26100
S301        S  0.11814371  0.07943577  0.41482328    -0.03300
C302        C  0.09726524  0.08880913  0.45048632    -0.16800
C303        C  0.10171870  0.11760006  0.44342467    -0.14800
H304        H  0.12637743  0.17660524  0.41240567     0.20600
H305        H  0.16410807  0.11265376  0.34207530     0.16600
H306        H  0.20229522  0.16384166  0.29464269     0.19100
H307        H  0.09115835  0.12764954  0.46320912     0.12500
C308        C  0.26781934  0.26410268  0.09272760     0.16300
C309        C  0.27984556  0.27529694  0.04931473    -0.32700
C310        C  0.26251241  0.25936557  0.01139666     0.20700
C311        C  0.23448001  0.23355350  0.01667298     0.02900
C312        C  0.22249691  0.22242279  0.05993371    -0.22400
C313        C  0.23982332  0.23822207  0.09771634     0.12100
S314        S  0.28503116  0.28009040  0.14306397    -0.06100
C315        C  0.25417705  0.25151874  0.17106515    -0.09500
C316        C  0.23191350  0.23083608  0.14247398    -0.26100
S317        S  0.21707979  0.21703252  0.96696384    -0.03300
C318        C  0.24790502  0.24500578  0.93827814    -0.16800
C319        C  0.27036048  0.26616420  0.96631063    -0.14800
H320        H  0.30174404  0.29544084  0.04529203     0.20600
H321        H  0.20064604  0.20220892  0.06395827     0.16600
H322        H  0.21085720  0.21161976  0.15378789     0.19100
H323        H  0.29145079  0.28507534  0.95443903     0.12500
C324        C  0.22335757  0.72799758  0.28845531     0.80600
N325        N  0.24415824  0.75161865  0.31321075    -0.77700
C326        C  0.26867556  0.77479137  0.29284185     0.83100
N327        N  0.27196666  0.77459979  0.24700245    -0.77600
C328        C  0.25096790  0.75134598  0.22161993     0.83200
N329        N  0.22673933  0.72784451  0.24257218    -0.79300
C330        C  0.22957578  0.71825544  0.82015224     0.80600
N331        N  0.25320823  0.74040223  0.79713283    -0.77700
C332        C  0.27519891  0.76489921  0.81894603     0.83100
N333        N  0.27383358  0.76683964  0.86509787    -0.77600
C334        C  0.25005472  0.74441160  0.88866636     0.83200
N335        N  0.22789997  0.72036954  0.86584366    -0.79300
C336        C  0.24501759  0.96220283  0.28659145     0.80600
N337        N  0.22334933  0.96262605  0.31268799    -0.77700
C338        C  0.20050946  0.96496088  0.29326511     0.83100
N339        N  0.19924413  0.96643622  0.24716033    -0.77600
C340        C  0.22064535  0.96565902  0.22059961     0.83200
N341        N  0.24365918  0.96373925  0.24054669    -0.79300
C342        C  0.24392117  0.96511077  0.81767332     0.80600
N343        N  0.24159208  0.96097746  0.86335498    -0.77700
C344        C  0.21943321  0.96230136  0.88706818     0.83100
N345        N  0.19887017  0.96704941  0.86434060    -0.77600
C346        C  0.20094991  0.97085591  0.81822714     0.83200
N347        N  0.22381114  0.97034747  0.79549676    -0.79300
C348        C  0.48470704  0.73941745  0.28773687     0.80600
N349        N  0.48063755  0.73544377  0.24200674    -0.77700
C350        C  0.48010134  0.71119915  0.22180053     0.83100
N351        N  0.48280006  0.69062541  0.24774059    -0.77600
C352        C  0.48630015  0.69417371  0.29347114     0.83200
N353        N  0.48770536  0.71884942  0.31316980    -0.79300
C354        C  0.47248598  0.73139134  0.81938790     0.80600
N355        N  0.47076132  0.70748823  0.79708694    -0.77700
C356        C  0.47116224  0.68456255  0.81983341     0.83100
N357        N  0.47254119  0.68527461  0.86622513    -0.77600
C358        C  0.47345989  0.70900943  0.88911685     0.83200
N359        N  0.47371870  0.73208421  0.86541409    -0.79300
O360        O  0.42471193  0.50282172  0.49619636    -0.87800
C361        C  0.07696078  0.56953147  0.62006785     1.12300
O362        O  0.45973650  0.97961181  0.55295128    -1.35600
O363        O  0.05815434  0.57434830  0.50514061    -0.89300
O364        O  0.39821652  0.95286956  0.50332145    -0.89900
O365        O  0.46150152  0.94874369  0.45778824    -0.78700
O366        O  0.49083899  0.53872438  0.50974350    -1.00800
C367        C  0.04700543  0.97966242  0.47259815     1.22300
O368        O  0.49247954  0.94948449  0.55517325    -1.35700
Mn369      Mn  0.49105206  0.98056190  0.60347170     1.82100
O370        O  0.02410138  0.98036224  0.45923928    -0.77800
O371        O  0.08188107  0.54767715  0.50012428    -0.87200
C372        C  0.04678265  0.98376677  0.63964738     1.13400
C373        C  0.07767307  0.56903117  0.48713452     1.08100
O374        O  0.46007814  0.94849055  0.64978194    -0.78800
O375        O  0.02245040  0.51263107  0.55398352    -1.32500
O376        O  0.43289853  0.91991374  0.59654015    -0.98000
C377        C  0.49538036  0.89451896  0.49085286     1.06800
Mn378      Mn  0.06566716  0.51626294  0.55356079     1.48600
O379        O  0.46945708  0.89076356  0.50041548    -0.87200
Mn380      Mn  0.41735038  0.93879824  0.55426391     1.49600
O381        O  0.42094381  0.00360834  0.59709003    -0.91000
C382        C  0.49185296  0.53471279  0.46912009     1.20000
C383        C  0.40185565  0.97885695  0.61593756     1.12100
Mn384      Mn  0.49225064  0.98029844  0.50466654     1.81000
O385        O  0.05167127  0.98337435  0.59910239    -0.96200
Mn386      Mn  0.45572262  0.51900868  0.54999076     1.49300
C387        C  0.40404403  0.97739731  0.48347751     1.08600
Mn388      Mn  0.03310340  0.94817290  0.55866381     1.49900
C389        C  0.49229815  0.89394014  0.62282088     1.11500
O390        O  0.43316707  0.92119489  0.51110535    -1.02000
O391        O  0.08356095  0.55091773  0.60213453    -0.91700
C392        C  0.43736532  0.92608818  0.47042032     1.22800
O393        O  0.05166068  0.98083205  0.51348004    -1.02400
O394        O  0.05484159  0.57244017  0.60738461    -0.89800
O395        O  0.01768890  0.91673723  0.61228788    -0.89400
O396        O  0.39918999  0.95342356  0.60579924    -0.89400
Mn397      Mn  0.02364087  0.55484139  0.55443525     1.47900
O398        O  0.02244638  0.98211384  0.65114565    -0.77900
C399        C  0.43736726  0.92442869  0.63730747     1.15800
O400        O  0.49198449  0.51133536  0.45684318    -0.76600
O401        O  0.48902539  0.51124287  0.64877067    -0.76200
Mn402      Mn  0.45279839  0.90637506  0.55274982     1.51100
O403        O  0.01914685  0.91358446  0.51058710    -0.88600
O404        O  0.48806839  0.53888040  0.59536859    -0.96100
O405        O  0.46798139  0.88765721  0.60227843    -0.91100
C406        C  0.48718425  0.53370952  0.63618286     1.13600
C407        C  0.46845336  0.62807731  0.73169685     0.16300
C408        C  0.96687118  0.61310422  0.69125131    -0.32700
C409        C  0.47480432  0.59060850  0.69263109     0.20700
C410        C  0.48212514  0.58190166  0.73316983     0.02900
C411        C  0.48287076  0.59642124  0.77430328    -0.22400
C412        C  0.47600329  0.61990806  0.77255847     0.12100
S413        S  0.46196343  0.65748052  0.73529952    -0.06100
C414        C  0.46986262  0.65961522  0.79262239    -0.09500
C415        C  0.47666094  0.63792364  0.80806602    -0.26100
S416        S  0.49025140  0.55333918  0.72701119    -0.03300
C417        C  0.48407097  0.55369060  0.66926658    -0.16800
C418        C  0.47598831  0.57470467  0.65608531    -0.14800
H419        H  0.96068650  0.61940420  0.65952442     0.20600
H420        H  0.48895062  0.59001980  0.80601003     0.16600
H421        H  0.48273352  0.63612255  0.84275212     0.19100
H422        H  0.97019999  0.57745439  0.62178315     0.12500
C423        C  0.46338674  0.78407315  0.73700229     0.16300
C424        C  0.45523195  0.79616599  0.70069152    -0.32700
C425        C  0.47244601  0.82734463  0.69317919     0.20700
C426        C  0.49692632  0.84590970  0.72036208     0.02900
C427        C  0.50463791  0.83387759  0.75774868    -0.22400
C428        C  0.48719708  0.80248256  0.76545158     0.12100
S429        S  0.44669023  0.74643195  0.74869407    -0.06100
C430        C  0.47148027  0.75532599  0.79314310    -0.09500
C431        C  0.49165055  0.78601053  0.79854192    -0.26100
S432        S  0.51624307  0.88289213  0.70254279    -0.03300
C433        C  0.49056024  0.87296684  0.65872344    -0.16800
C434        C  0.46844376  0.84274655  0.65839546    -0.14800
H435        H  0.43669644  0.78174191  0.67846203     0.20600
H436        H  0.52375098  0.84816781  0.77911976     0.16600
H437        H  0.50941758  0.79550526  0.82376464     0.19100
H438        H  0.45090085  0.83232084  0.63293742     0.12500
C439        C  0.49370829  0.64254133  0.38095185     0.16300
C440        C  0.49772266  0.62961301  0.42030727    -0.32700
C441        C  0.49457956  0.60089933  0.41664846     0.20700
C442        C  0.48778113  0.58546355  0.37569950     0.02900
C443        C  0.48376290  0.59847849  0.33603377    -0.22400
C444        C  0.48692641  0.62739702  0.33971653     0.12100
S445        S  0.49635677  0.67710984  0.37899828    -0.06100
C446        C  0.48843714  0.67148305  0.32178663    -0.09500
C447        C  0.48389453  0.64399687  0.30544251    -0.26100
S448        S  0.48454707  0.55042360  0.37947161    -0.03300
C449        C  0.49219021  0.55690676  0.43679916    -0.16800
C450        C  0.49715148  0.58473620  0.45153682    -0.14800
H451        H  0.50292669  0.64138644  0.45255547     0.20600
H452        H  0.47831560  0.58660028  0.30388015     0.16600
H453        H  0.47850629  0.63651322  0.27050658     0.19100
H454        H  0.50203113  0.59263146  0.48637087     0.12500
C455        C  0.01039095  0.84364876  0.41275173     0.16300
C456        C  0.02075800  0.82514624  0.39480353    -0.32700
C457        C  0.00345256  0.80464685  0.36074443     0.20700
C458        C  0.47725393  0.80302536  0.34441451     0.02900
C459        C  0.46689002  0.82159084  0.36271739    -0.22400
C460        C  0.48378853  0.84136028  0.39805788     0.12100
S461        S  0.02740358  0.86854900  0.45611981    -0.06100
C462        C  0.49795712  0.87525707  0.45595508    -0.09500
C463        C  0.47638847  0.85956687  0.42277525    -0.26100
S464        S  0.45928309  0.77624385  0.30317962    -0.03300
C465        C  0.48634248  0.76592006  0.31008554    -0.16800
C466        C  0.00872087  0.78329848  0.34166742    -0.14800
H467        H  0.04098853  0.82605569  0.40781443     0.20600
H468        H  0.44613474  0.82005216  0.35089021     0.16600
H469        H  0.45612625  0.86090301  0.41773195     0.19100
H470        H  0.02717348  0.77973755  0.35105266     0.12500
C471        C  0.47989961  0.69536002  0.09400581     0.16300
C472        C  0.48302867  0.68550570  0.05085408    -0.32700
C473        C  0.47698754  0.69819491  0.01269461     0.20700
C474        C  0.46812088  0.71963519  0.01746580     0.02900
C475        C  0.96458844  0.72934467  0.06019355    -0.22400
C476        C  0.97131763  0.71717319  0.09819630     0.12100
S477        S  0.48686910  0.68333081  0.14438305    -0.06100
C478        C  0.47800002  0.70765306  0.17195577    -0.09500
C479        C  0.97018364  0.72428611  0.14287611    -0.26100
S480        S  0.96230927  0.73298374  0.96693999    -0.03300
C481        C  0.47257087  0.70959647  0.93929228    -0.16800
C482        C  0.47935478  0.69211728  0.96778408    -0.14800
H483        H  0.49018591  0.66894639  0.04718989     0.20600
H484        H  0.95733920  0.74583113  0.06393511     0.16600
H485        H  0.96365644  0.74037143  0.15413779     0.19100
H486        H  0.48614623  0.67627847  0.95630924     0.12500
C487        C  0.34758057  0.99100646  0.69093439     0.16300
C488        C  0.32874891  0.00096173  0.70891246    -0.32700
C489        C  0.30730345  0.98258649  0.74144879     0.20700
C490        C  0.30523581  0.95587776  0.75664882     0.02900
C491        C  0.32390667  0.94569024  0.73819754    -0.22400
C492        C  0.34483938  0.96370721  0.70452495     0.12100
S493        S  0.37419886  0.00975210  0.65002654    -0.06100
C494        C  0.38109795  0.98003314  0.64960693    -0.09500
C495        C  0.36394106  0.95712372  0.68058538    -0.26100
S496        S  0.27804942  0.93735855  0.79737575    -0.03300
C497        C  0.26884004  0.96539460  0.79237817    -0.16800
C498        C  0.28621615  0.98791751  0.76132266    -0.14800
H499        H  0.33060037  0.52164361  0.69880694     0.20600
H500        H  0.32189035  0.92448178  0.74907218     0.16600
H501        H  0.36502701  0.93661582  0.68477532     0.19100
H502        H  0.28363297  0.50695866  0.75482698     0.12500
C503        C  0.15285610  0.98540322  0.73294946     0.16300
C504        C  0.14133718  0.99119166  0.69352771    -0.32700
C505        C  0.11250554  0.98772292  0.69580111     0.20700
C506        C  0.09575089  0.97920607  0.73570703     0.02900
C507        C  0.10748395  0.97364230  0.77564174    -0.22400
C508        C  0.13646733  0.97683426  0.77323674     0.12100
S509        S  0.18678756  0.98702923  0.73551662    -0.06100
C510        C  0.17937184  0.97604203  0.79173009    -0.09500
C511        C  0.15173854  0.97153921  0.80748103    -0.26100
S512        S  0.06054015  0.97520688  0.72994574    -0.03300
C513        C  0.06866239  0.98464208  0.67314954    -0.16800
C514        C  0.09723988  0.99094397  0.66013412    -0.14800
H515        H  0.15410205  0.99752787  0.66203035     0.20600
H516        H  0.09442340  0.96660797  0.80683081     0.16600
H517        H  0.14305080  0.96416054  0.84157288     0.19100
H518        H  0.10615907  0.99684917  0.62584149     0.12500
C519        C  0.35808798  0.98598042  0.38684875     0.16300
C520        C  0.34543630  0.99697931  0.35501444    -0.32700
C521        C  0.31585209  0.97714531  0.34022309     0.20700
C522        C  0.29978183  0.94753018  0.35589237     0.02900
C523        C  0.31281698  0.93625994  0.38648787    -0.22400
C524        C  0.34215139  0.95623384  0.40190584     0.12100
S525        S  0.39208610  0.00739509  0.41323718    -0.06100
C526        C  0.38457661  0.97603258  0.44536077    -0.09500
C527        C  0.35744009  0.95026210  0.43488632    -0.26100
S528        S  0.26313620  0.92804609  0.33791916    -0.03300
C529        C  0.26960211  0.95995321  0.30856482    -0.16800
C530        C  0.29868728  0.98429321  0.31249796    -0.14800
H531        H  0.35759399  0.02034947  0.34385760     0.20600
H532        H  0.30011218  0.91332026  0.39938783     0.16600
H533        H  0.34861443  0.92869428  0.45217783     0.19100
H534        H  0.30632238  0.00646044  0.29787735     0.12500
C535        C  0.14756593  0.96789453  0.38341777     0.16300
C536        C  0.13352837  0.96876852  0.42380331    -0.32700
C537        C  0.10813815  0.97223068  0.42031677     0.20700
C538        C  0.09692089  0.97455221  0.37850765     0.02900
C539        C  0.11100331  0.97363463  0.33788746    -0.22400
C540        C  0.13662654  0.97031468  0.34139242     0.12100
S541        S  0.17888496  0.96427338  0.38092458    -0.06100
C542        C  0.17758357  0.96612549  0.32247173    -0.09500
C543        C  0.15379916  0.96928328  0.30614697    -0.26100
S544        S  0.06569322  0.97863220  0.38225458    -0.03300
C545        C  0.06810415  0.97740073  0.44072390    -0.16800
C546        C  0.09180336  0.97387195  0.45591616    -0.14800
H547        H  0.14214552  0.96699013  0.45662964     0.20600
H548        H  0.10247110  0.97555465  0.30507967     0.16600
H549        H  0.14943949  0.97095258  0.27050273     0.19100
H550        H  0.09682921  0.97252439  0.49137175     0.12500
C551        C  0.20534457  0.96735223  0.09242369     0.16300
C552        C  0.19424439  0.96884938  0.04931761    -0.32700
C553        C  0.20791784  0.96433225  0.01094730     0.20700
C554        C  0.23152899  0.95855097  0.01550839     0.02900
C555        C  0.24262460  0.95711673  0.05846378    -0.22400
C556        C  0.22905549  0.96171026  0.09668955     0.12100
S557        S  0.19175814  0.97182781  0.14323455    -0.06100
C558        C  0.21838850  0.96612810  0.17047289    -0.09500
C559        C  0.23672267  0.96111761  0.14125137    -0.26100
S560        S  0.24553161  0.95421816  0.96528600    -0.03300
C561        C  0.21948265  0.96040487  0.93730916    -0.16800
C562        C  0.20080901  0.96536146  0.96601829    -0.14800
H563        H  0.17581157  0.97337906  0.04585317     0.20600
H564        H  0.26114374  0.95271001  0.06192456     0.16600
H565        H  0.25449303  0.95685795  0.15202737     0.19100
H566        H  0.18346260  0.97009304  0.95467869     0.12500
C567        C  0.33004161  0.81991270  0.72989253     0.16300
C568        C  0.34387438  0.83452358  0.68926606    -0.32700
C569        C  0.37227347  0.86050335  0.69196272     0.20700
C570        C  0.38656571  0.87168182  0.73327269     0.02900
C571        C  0.37262904  0.85690336  0.77431874    -0.22400
C572        C  0.34389645  0.83072406  0.77163077     0.12100
S573        S  0.29567679  0.78810620  0.73268525    -0.06100
C574        C  0.29940489  0.78887055  0.79100004    -0.09500
C575        C  0.32622594  0.81293884  0.80721971    -0.26100
S576        S  0.42107131  0.90405157  0.72825676    -0.03300
C577        C  0.41576884  0.90216377  0.67005315    -0.16800
C578        C  0.38883056  0.87769122  0.65586297    -0.14800
H579        H  0.33288200  0.82600109  0.65680114     0.20600
H580        H  0.38358679  0.86546745  0.80676656     0.16600
H581        H  0.33251587  0.81700658  0.84276442     0.19100
H582        H  0.38152831  0.87285500  0.62075696     0.12500
C583        C  0.18081158  0.65208590  0.74202843     0.16300
C584        C  0.17033278  0.63023907  0.70776789    -0.32700
C585        C  0.13983510  0.61666553  0.69592526     0.20700
C586        C  0.12045536  0.62437836  0.71723272     0.02900
C587        C  0.13074831  0.64563165  0.75265746    -0.22400
C588        C  0.16141006  0.65930948  0.76450356     0.12100
S589        S  0.21769654  0.67325639  0.75747803    -0.06100
C590        C  0.20696635  0.69174846  0.79527193    -0.09500
C591        C  0.17631888  0.68185294  0.79594160    -0.26100
S592        S  0.08488857  0.60714732  0.69469853    -0.03300
C593        C  0.09637121  0.58919546  0.65669836    -0.16800
C594        C  0.12605502  0.59619116  0.66173022    -0.14800
H595        H  0.18553943  0.62479594  0.69001504     0.20600
H596        H  0.11579760  0.65192464  0.76919463     0.16600
H597        H  0.16588957  0.69174661  0.81637160     0.19700
H598        H  0.13732164  0.58766387  0.64026134     0.12500
C599        C  0.32242436  0.83129239  0.38073727     0.16300
C600        C  0.33687118  0.84612590  0.42080093    -0.32700
C601        C  0.36702603  0.86920552  0.41755626     0.20700
C602        C  0.38217757  0.87775355  0.37624262     0.02900
C603        C  0.36755775  0.86306061  0.33589234    -0.22400
C604        C  0.33740571  0.83949669  0.33923604     0.12100
S605        S  0.28657707  0.80133853  0.37841691    -0.06100
C606        C  0.29171909  0.79936763  0.32087371    -0.09500
C607        C  0.31974017  0.82133223  0.30453496    -0.26100
S608        S  0.41903807  0.90621112  0.38032210    -0.03300
C609        C  0.41382483  0.90602056  0.43830051    -0.16800
C610        C  0.38500664  0.88522881  0.45309525    -0.14800
H611        H  0.32532011  0.83947131  0.45330807     0.20600
H612        H  0.37931704  0.86927232  0.30354365     0.16600
H613        H  0.32714814  0.82323682  0.26953293     0.19100
H614        H  0.37756405  0.88198189  0.48824047     0.12500
C615        C  0.15594755  0.67469925  0.36259391     0.16300
C616        C  0.13266821  0.66246943  0.39491642    -0.32700
C617        C  0.12183226  0.63252591  0.40890430     0.20700
C618        C  0.13351709  0.61534075  0.39135804     0.02900
C619        C  0.15631496  0.62732700  0.35795568    -0.22400
C620        C  0.16728211  0.65744346  0.34405406     0.12100
S621        S  0.17408570  0.71152979  0.34516113    -0.06100
C622        C  0.19687867  0.70366279  0.31177691    -0.09500
C623        C  0.19065122  0.67393931  0.31417680    -0.26100
S624        S  0.11899439  0.58035778  0.41599647    -0.03300
C625        C  0.09693579  0.58906974  0.45013664    -0.16800
C626        C  0.10057747  0.61745927  0.44204761    -0.14800
H627        H  0.12407778  0.67606808  0.40971066     0.20600
H628        H  0.16574443  0.61411424  0.34451161     0.16600
H629        H  0.20355660  0.66537857  0.29699848     0.19100
H630        H  0.08922119  0.62710331  0.46082261     0.12500
C631        C  0.26774833  0.76482971  0.09319664     0.16300
C632        C  0.27972887  0.77599038  0.04973148    -0.32700
C633        C  0.26260775  0.75969840  0.01185089     0.20700
C634        C  0.23483796  0.73357362  0.01723399     0.02900
C635        C  0.22292037  0.72247125  0.06052534    -0.22400
C636        C  0.24001609  0.73863351  0.09825244     0.12100
S637        S  0.28464858  0.78124578  0.14352486    -0.06100
C638        C  0.25400268  0.75243153  0.17157756    -0.09500
C639        C  0.23205920  0.73135316  0.14301406    -0.26100
S640        S  0.21760637  0.71669285  0.96761844    -0.03300
C641        C  0.24813410  0.74493474  0.93877768    -0.16800
C642        C  0.27038994  0.76643921  0.96671321    -0.14800
H643        H  0.30141131  0.79639574  0.04564381     0.20600
H644        H  0.20126364  0.70202626  0.06461696     0.16600
H645        H  0.21116103  0.71193849  0.15434404     0.19100
H646        H  0.29126769  0.78559230  0.95474204     0.12500
C647        C  0.72408273  0.22651340  0.28796942     0.80600
N648        N  0.74508439  0.25000595  0.31269516    -0.77700
C649        C  0.76968225  0.27306455  0.29232065     0.83100
N650        N  0.77285813  0.27290479  0.24645759    -0.77600
C651        C  0.75167075  0.24977424  0.22107745     0.83200
N652        N  0.72734560  0.22637677  0.24205012    -0.79300
C653        C  0.73018326  0.21802568  0.81948826     0.80600
N654        N  0.75393970  0.24006007  0.79654757    -0.77700
C655        C  0.77607224  0.26439305  0.81846846     0.83100
N656        N  0.77471406  0.26626194  0.86463945    -0.77600
C657        C  0.75079933  0.24391581  0.88810341     0.83200
N658        N  0.72852204  0.22005914  0.86517586    -0.79300
C659        C  0.74402342  0.46132210  0.28714096     0.80600
N660        N  0.72215565  0.46143942  0.31307759    -0.77700
C661        C  0.69928540  0.46362944  0.29351548     0.83100
N662        N  0.69820425  0.46531531  0.24743571    -0.77600
C663        C  0.71983823  0.46488850  0.22102251     0.83200
N664        N  0.74288783  0.46309497  0.24109929    -0.79300
C665        C  0.74395162  0.46556575  0.81809115     0.80600
N666        N  0.74166004  0.46149276  0.86377585    -0.77700
C667        C  0.71968473  0.46309976  0.88755080     0.83100
N668        N  0.69925863  0.46808732  0.86488994    -0.77600
C669        C  0.70132684  0.47190337  0.81877771     0.83200
N670        N  0.72401733  0.47110745  0.79597253    -0.79300
C671        C  0.98455881  0.23947526  0.28700922     0.80600
N672        N  0.98039332  0.23550029  0.24128589    -0.77700
C673        C  0.98018010  0.21145461  0.22091751     0.83100
N674        N  0.98330766  0.19106029  0.24670808    -0.77600
C675        C  0.98689766  0.19459247  0.29244726     0.83200
N676        N  0.98797685  0.21908969  0.31226483    -0.79300
C677        C  0.97151828  0.23103709  0.81818590     0.80600
N678        N  0.96961910  0.20697684  0.79611539    -0.77700
C679        C  0.97001627  0.18412348  0.81908240     0.83100
N680        N  0.97159319  0.18508230  0.86544861    -0.77600
C681        C  0.97264675  0.20894612  0.88812787     0.83200
N682        N  0.97289663  0.23194904  0.86421982    -0.79300
O683        O  0.92561657  0.00367549  0.49594929    -0.87800
C684        C  0.57685249  0.06929894  0.62052672     1.12300
O685        O  0.95959237  0.47985222  0.55301840    -1.35600
O686        O  0.55845993  0.07397759  0.50543965    -0.89300
O687        O  0.89779577  0.45310147  0.50417323    -0.89900
O688        O  0.96109511  0.44917592  0.45752355    -0.78700
O689        O  0.99158221  0.03934427  0.50974462    -1.00800
C690        C  0.54694912  0.47984030  0.47276410     1.22300
O691        O  0.99239083  0.44977689  0.55456589    -1.35700
Mn692      Mn  0.99107566  0.48078165  0.60316798     1.82100
O693        O  0.52400571  0.48044463  0.45943182    -0.77800
O694        O  0.58218677  0.04728948  0.50083021    -0.87200
C695        C  0.54683103  0.48394567  0.63977236     1.13400
C696        C  0.57800533  0.06862042  0.48763632     1.08100
O697        O  0.96030884  0.44858835  0.64951828    -0.78800
O698        O  0.52258040  0.01233251  0.55434986    -1.32500
O699        O  0.93305439  0.42007175  0.59627267    -0.98000
C700        C  0.99515925  0.39488918  0.48969319     1.06800
Mn701      Mn  0.56577861  0.01595418  0.55436179     1.48600
O702        O  0.96925346  0.39118335  0.49922840    -0.87200
Mn703      Mn  0.91724621  0.43898130  0.55452793     1.49600
O704        O  0.92096907  0.50364806  0.59803549    -0.91000
C705        C  0.99262513  0.03531500  0.46909962     1.20000
C706        C  0.90194455  0.47886832  0.61689724     1.12100
Mn707      Mn  0.99196515  0.48065341  0.50437635     1.81000
O708        O  0.55175309  0.48356578  0.59923762    -0.96200
Mn709      Mn  0.95636110  0.01961952  0.54987897     1.49300
C710        C  0.90345728  0.47766884  0.48463050     1.08600
Mn711      Mn  0.53333858  0.44835092  0.55872321     1.49900
C712        C  0.99243221  0.39408502  0.62156317     1.11500
O713        O  0.93289315  0.42146891  0.51082538    -1.02000
O714        O  0.58344974  0.05062521  0.60282697    -0.91700
C715        C  0.93703097  0.42642605  0.47013487     1.22800
O716        O  0.55170145  0.48108678  0.51362412    -1.02400
O717        O  0.55479260  0.07223576  0.60762569    -0.89800
O718        O  0.51810361  0.41682787  0.61231770    -0.89400
O719        O  0.89927135  0.45345174  0.60660541    -0.89400
Mn720      Mn  0.52377606  0.05454904  0.55448763     1.47900
O721        O  0.52245061  0.48222108  0.65120960    -0.77900
C722        C  0.93768690  0.42445855  0.63703196     1.15800
O723        O  0.99248626  0.01178108  0.45685083    -0.76600
O724        O  0.98926169  0.01137799  0.64882270    -0.76200
Mn725      Mn  0.95274684  0.40663747  0.55200794     1.51100
O726        O  0.51954457  0.41375499  0.51048461    -0.88600
O727        O  0.98852606  0.03915185  0.59546803    -0.96100
O728        O  0.96811593  0.38781243  0.60104088    -0.91100
C729        C  0.98745232  0.03386559  0.63625880     1.13600
C730        C  0.96692576  0.12713609  0.73157354     0.16300
C731        C  0.46599132  0.11242575  0.69102338    -0.32700
C732        C  0.97386156  0.08998494  0.69263486     0.20700
C733        C  0.98191658  0.08188357  0.73306985     0.02900
C734        C  0.98276071  0.09656714  0.77407299    -0.22400
C735        C  0.97523668  0.11959069  0.77230730     0.12100
S736        S  0.95983892  0.15615859  0.73509146    -0.06100
C737        C  0.96855366  0.15899473  0.79216662    -0.09500
C738        C  0.97600431  0.13777654  0.80762528    -0.26100
S739        S  0.99084308  0.05387650  0.72693006    -0.03300
C740        C  0.98405648  0.05368674  0.66930820    -0.16800
C741        C  0.97516319  0.07409319  0.65616248    -0.14800
H742        H  0.46019660  0.11899233  0.65919127     0.20600
H743        H  0.98945429  0.09067661  0.80567603     0.16600
H744        H  0.98269041  0.13649094  0.84213706     0.19100
H745        H  0.47018927  0.07737299  0.62138672     0.12500
C746        C  0.96321975  0.28383849  0.73497158     0.16300
C747        C  0.95538657  0.29599445  0.69837104    -0.32700
C748        C  0.97255949  0.32720793  0.69117959     0.20700
C749        C  0.99672391  0.34574753  0.71890298     0.02900
C750        C  0.00412415  0.33363976  0.75653525    -0.22400
C751        C  0.98669306  0.30221204  0.76395638     0.12100
S752        S  0.94646446  0.24617470  0.74652005    -0.06100
C753        C  0.97074932  0.25500445  0.79165252    -0.09500
C754        C  0.99081788  0.28568892  0.79733761    -0.26100
S755        S  0.01600112  0.38282956  0.70153344    -0.03300
C756        C  0.99069519  0.37297037  0.65720136    -0.16800
C757        C  0.96875440  0.34269788  0.65634219    -0.14800
H758        H  0.93709163  0.28160517  0.67575338     0.20600
H759        H  0.02296741  0.34791103  0.77836541     0.16600
H760        H  0.00829194  0.29515754  0.82301098     0.19100
H761        H  0.95143348  0.33232353  0.63055234     0.12500
C762        C  0.99485203  0.14326064  0.38008586     0.16300
C763        C  0.99872031  0.13033839  0.41959905    -0.32700
C764        C  0.99567364  0.10164481  0.41611955     0.20700
C765        C  0.98916123  0.08625544  0.37515563     0.02900
C766        C  0.98533260  0.09928353  0.33531371    -0.22400
C767        C  0.98833902  0.12815759  0.33883693     0.12100
S768        S  0.99719064  0.17769833  0.37799829    -0.06100
C769        C  0.98943814  0.17207204  0.32072433    -0.09500
C770        C  0.98524837  0.14468878  0.30444391    -0.26100
S771        S  0.98592294  0.05120940  0.37917261    -0.03300
C772        C  0.99316153  0.05759726  0.43663118    -0.16800
C773        C  0.99801091  0.08543010  0.45121409    -0.14800
H774        H  0.00366916  0.14207382  0.45186017     0.20600
H775        H  0.98006835  0.08741239  0.30316443     0.16600
H776        H  0.97996533  0.13718363  0.26950350     0.19100
H777        H  0.00263000  0.09328699  0.48608309     0.12500
C778        C  0.51013360  0.34305995  0.41302696     0.16300
C779        C  0.52012885  0.32418764  0.39527529    -0.32700
C780        C  0.50271531  0.30378070  0.36115574     0.20700
C781        C  0.97718099  0.30332200  0.34333607     0.02900
C782        C  0.96701147  0.32218485  0.36115645    -0.22400
C783        C  0.98368710  0.34173687  0.39686701     0.12100
S784        S  0.52731469  0.36795259  0.45640561    -0.06100
C785        C  0.99772113  0.37556227  0.45488480    -0.09500
C786        C  0.97641378  0.36019002  0.42122095    -0.26100
S787        S  0.95950108  0.27680472  0.30162575    -0.03300
C788        C  0.98607434  0.26590780  0.30951037    -0.16800
C789        C  0.50765166  0.28217538  0.34215794    -0.14800
H790        H  0.54016941  0.32477200  0.40845249     0.20600
H791        H  0.94657368  0.32105173  0.34865876     0.16600
H792        H  0.95641516  0.36191316  0.41559734     0.19100
H793        H  0.52588011  0.27829849  0.35168955     0.12500
C794        C  0.98036801  0.19616017  0.09295406     0.16300
C795        C  0.98384340  0.18663858  0.04974378    -0.32700
C796        C  0.97710191  0.19882548  0.01167884     0.20700
C797        C  0.96727154  0.21951106  0.01656242     0.02900
C798        C  0.46442550  0.22921069  0.06001258    -0.22400
C799        C  0.47087499  0.21683412  0.09805946     0.12100
S800        S  0.98799683  0.18456110  0.14320154    -0.06100
C801        C  0.97807495  0.20800857  0.17102479    -0.09500
C802        C  0.46967008  0.22390001  0.14275864    -0.26100
S803        S  0.46222627  0.23287288  0.96672375    -0.03300
C804        C  0.97191695  0.20969530  0.93830877    -0.16800
C805        C  0.97957963  0.19287552  0.96675439    -0.14800
H806        H  0.99175011  0.17067431  0.04596343     0.20600
H807        H  0.45739688  0.24586834  0.06372320     0.16600
H808        H  0.46331561  0.24012101  0.15398751     0.19100
H809        H  0.98704424  0.17757300  0.95522441     0.12500
C810        C  0.84738100  0.49085201  0.69132865     0.16300
C811        C  0.82831418  0.50066216  0.70876675    -0.32700
C812        C  0.80707611  0.48251825  0.74166162     0.20700
C813        C  0.80543301  0.45618281  0.75776570     0.02900
C814        C  0.82434167  0.44610765  0.73982720    -0.22400
C815        C  0.84506591  0.46388036  0.70573772     0.12100
S816        S  0.87378304  0.50939925  0.65011387    -0.06100
C817        C  0.88118338  0.48002297  0.65058560    -0.09500
C818        C  0.86433493  0.45735687  0.68209688    -0.26100
S819        S  0.77846639  0.43799767  0.79892519    -0.03300
C820        C  0.76877130  0.46563696  0.79279685    -0.16800
C821        C  0.78584811  0.48779519  0.76111248    -0.14800
H822        H  0.82950032  0.02157895  0.69532695     0.20600
H823        H  0.82266011  0.42517155  0.75139533     0.16600
H824        H  0.86574233  0.43706410  0.68684741     0.19100
H825        H  0.78297513  0.00719215  0.75202014     0.12500
C826        C  0.65354087  0.48714563  0.73376439     0.16300
C827        C  0.64207130  0.49308636  0.69439353    -0.32700
C828        C  0.61295098  0.48894112  0.69637024     0.20700
C829        C  0.59590624  0.47969126  0.73598253     0.02900
C830        C  0.60758933  0.47400226  0.77586034    -0.22400
C831        C  0.63682987  0.47781828  0.77372386     0.12100
S832        S  0.68771650  0.48928100  0.73657682    -0.06100
C833        C  0.67991488  0.47741958  0.79240515    -0.09500
C834        C  0.65202385  0.47234568  0.80788737    -0.26100
S835        S  0.56041226  0.47493884  0.72992234    -0.03300
C836        C  0.56877780  0.48502468  0.67336541    -0.16800
C837        C  0.59764780  0.49208822  0.66064962    -0.14800
H838        H  0.65507089  0.49997594  0.66311946     0.20600
H839        H  0.59428208  0.46635225  0.80678007     0.16600
H840        H  0.64305624  0.46432694  0.84167209     0.19100
H841        H  0.60675863  0.49848644  0.62652745     0.12500
C842        C  0.85675959  0.48644582  0.38946288     0.16300
C843        C  0.84387264  0.49744119  0.35807094    -0.32700
C844        C  0.81462448  0.47727568  0.34240616     0.20700
C845        C  0.79905167  0.44737708  0.35691914     0.02900
C846        C  0.81229336  0.43617443  0.38725604    -0.22400
C847        C  0.84133749  0.45644839  0.40343950     0.12100
S848        S  0.89055289  0.50803686  0.41623915    -0.06100
C849        C  0.88370033  0.47639588  0.44703912    -0.09500
C850        C  0.85687105  0.45044194  0.43596141    -0.26100
S851        S  0.76272635  0.42734684  0.33768633    -0.03300
C852        C  0.76871339  0.45942631  0.30934517    -0.16800
C853        C  0.79736519  0.48423541  0.31462090    -0.14800
H854        H  0.85563950  0.52097918  0.34772059     0.20600
H855        H  0.79999080  0.41298411  0.39921758     0.16600
H856        H  0.84848534  0.42864926  0.45236897     0.19100
H857        H  0.80460696  0.50652749  0.30080477     0.12500
C858        C  0.64641034  0.46658928  0.38346496     0.16300
C859        C  0.63257648  0.46774280  0.42385511    -0.32700
C860        C  0.60739803  0.47152142  0.42038928     0.20700
C861        C  0.59613482  0.47381469  0.37859975     0.02900
C862        C  0.60999432  0.47257963  0.33795297    -0.22400
C863        C  0.63545925  0.46900800  0.34144262     0.12100
S864        S  0.67759736  0.46279003  0.38101713    -0.06100
C865        C  0.67626630  0.46462538  0.32259110    -0.09500
C866        C  0.65254107  0.46784531  0.30620723    -0.26100
S867        S  0.56518443  0.47832621  0.38241132    -0.03300
C868        C  0.56783400  0.47734573  0.44086030    -0.16800
C869        C  0.59136124  0.47356044  0.45601873    -0.14800
H870        H  0.64123285  0.46600861  0.45667272     0.20600
H871        H  0.60145886  0.47451484  0.30515593     0.16600
H872        H  0.64822734  0.46957023  0.27055990     0.19100
H873        H  0.59645356  0.47227886  0.49146446     0.12500
C874        C  0.70486714  0.46700902  0.09289545     0.16300
C875        C  0.69365061  0.46830504  0.04980124    -0.32700
C876        C  0.70786792  0.46460300  0.01141520     0.20700
C877        C  0.73212477  0.45981437  0.01595003     0.02900
C878        C  0.74336264  0.45862204  0.05889597    -0.22400
C879        C  0.72922231  0.46236360  0.09714227     0.12100
S880        S  0.69062284  0.47049643  0.14370720    -0.06100
C881        C  0.71782202  0.46569220  0.17092216    -0.09500
C882        C  0.73684041  0.46172167  0.14170615    -0.26100
S883        S  0.74659635  0.45619558  0.96572164    -0.03300
C884        C  0.71985855  0.46133073  0.93778377    -0.16800
C885        C  0.70065389  0.46547068  0.96650174    -0.14800
H886        H  0.67468956  0.47202183  0.04636136     0.20600
H887        H  0.76236656  0.45496566  0.06233837     0.16600
H888        H  0.75504513  0.45813322  0.15247725     0.19100
H889        H  0.68278886  0.46942652  0.95518584     0.12500
C890        C  0.83102190  0.31933296  0.72951945     0.16300
C891        C  0.84477170  0.33402967  0.68892009    -0.32700
C892        C  0.87315358  0.36001101  0.69161948     0.20700
C893        C  0.88754948  0.37107941  0.73289539     0.02900
C894        C  0.87372404  0.35616952  0.77391938    -0.22400
C895        C  0.84496595  0.33002141  0.77123788     0.12100
S896        S  0.79658306  0.28764652  0.73229417    -0.06100
C897        C  0.80038008  0.28829002  0.79058386    -0.09500
C898        C  0.82729406  0.31222179  0.80681451    -0.26100
S899        S  0.92193635  0.40359282  0.72788308    -0.03300
C900        C  0.91638789  0.40193401  0.66974837    -0.16800
C901        C  0.88951486  0.37739183  0.65556226    -0.14800
H902        H  0.83368310  0.32562811  0.65648219     0.20600
H903        H  0.88473722  0.36466673  0.80635140     0.16600
H904        H  0.83361786  0.31621591  0.84235232     0.19100
H905        H  0.88207686  0.37268736  0.62050116     0.12500
C906        C  0.68090160  0.15176158  0.74198151     0.16300
C907        C  0.67017523  0.12958154  0.70823573    -0.32700
C908        C  0.63973421  0.11632556  0.69626157     0.20700
C909        C  0.62063408  0.12465893  0.71692689     0.02900
C910        C  0.63116534  0.14626257  0.75185456    -0.22400
C911        C  0.66177270  0.15961174  0.76384882     0.12100
S912        S  0.71779572  0.17254046  0.75753837    -0.06100
C913        C  0.70741102  0.19168289  0.79459427    -0.09500
C914        C  0.67688895  0.18232455  0.79492785    -0.26100
S915        S  0.58511855  0.10769307  0.69424035    -0.03300
C916        C  0.59626672  0.08903801  0.65705111    -0.16800
C917        C  0.62578487  0.09560232  0.66246778    -0.14800
H918        H  0.68516190  0.12363097  0.69096321     0.20600
H919        H  0.61644492  0.15303946  0.76791094     0.16600
H920        H  0.66670455  0.19264873  0.81493768     0.19700
H921        H  0.63684768  0.08661279  0.64149182     0.12500
C922        C  0.82321843  0.32969237  0.38030980     0.16300
C923        C  0.83745532  0.34469745  0.42037616    -0.32700
C924        C  0.86734226  0.36835510  0.41713224     0.20700
C925        C  0.88245535  0.37723815  0.37581501     0.02900
C926        C  0.86804938  0.36232569  0.33544345    -0.22400
C927        C  0.83813875  0.33822418  0.33878002     0.12100
S928        S  0.78764401  0.29930490  0.37800273    -0.06100
C929        C  0.79276088  0.29760279  0.32039424    -0.09500
C930        C  0.82061893  0.31992908  0.30403511    -0.26100
S931        S  0.91899090  0.40641498  0.37994587    -0.03300
C932        C  0.91368303  0.40608991  0.43793914    -0.16800
C933        C  0.88507047  0.38471278  0.45268958    -0.14800
H934        H  0.82592720  0.33780701  0.45288038     0.20600
H935        H  0.87977396  0.36883518  0.30307867     0.16600
H936        H  0.82796436  0.32210353  0.26895921     0.19100
H937        H  0.87760743  0.38125348  0.48783232     0.12500
C938        C  0.65693581  0.17404277  0.36315348     0.16300
C939        C  0.63410298  0.16222040  0.39618723    -0.32700
C940        C  0.62266552  0.13209409  0.40967039     0.20700
C941        C  0.63336119  0.11434589  0.39099934     0.02900
C942        C  0.65569221  0.12594029  0.35686556    -0.22400
C943        C  0.66725638  0.15624452  0.34343927     0.12100
S944        S  0.67574683  0.21095791  0.34619965    -0.06100
C945        C  0.69746276  0.20243270  0.31141693    -0.09500
C946        C  0.69037541  0.17241511  0.31300523    -0.26100
S947        S  0.61827818  0.07916915  0.41520092    -0.03300
C948        C  0.59728642  0.08856458  0.45058720    -0.16800
C949        C  0.60169803  0.11731905  0.44327344    -0.14800
H950        H  0.62631041  0.17624158  0.41187245     0.20600
H951        H  0.66434568  0.11227977  0.34250975     0.16600
H952        H  0.70257288  0.16340562  0.29492892     0.19100
H953        H  0.59107234  0.12738256  0.46286729     0.12500
C954        C  0.76834472  0.26357302  0.09270081     0.16300
C955        C  0.78036551  0.27485833  0.04931271    -0.32700
C956        C  0.76324288  0.25873929  0.01135040     0.20700
C957        C  0.73541813  0.23265743  0.01657479     0.02900
C958        C  0.72344886  0.22142563  0.05980623    -0.22400
C959        C  0.74056058  0.23742097  0.09763111     0.12100
S960        S  0.78529267  0.27978640  0.14307432    -0.06100
C961        C  0.75461105  0.25095443  0.17101830    -0.09500
C962        C  0.73260007  0.23001290  0.14237642    -0.26100
S963        S  0.71820640  0.21599933  0.96684434    -0.03300
C964        C  0.74882851  0.24428090  0.93820302    -0.16800
C965        C  0.77109271  0.26562876  0.96627085    -0.14800
H966        H  0.80209119  0.29522726  0.04534348     0.20600
H967        H  0.70175347  0.20101078  0.06377656     0.16600
H968        H  0.71167297  0.21060798  0.15364117     0.19100
H969        H  0.79202139  0.28477386  0.95443020     0.12500
C970        C  0.72362392  0.72742281  0.28835867     0.80600
N971        N  0.74432184  0.75113675  0.31308502    -0.77700
C972        C  0.76883495  0.77433060  0.29273812     0.83100
N973        N  0.77222082  0.77406351  0.24693116    -0.77600
C974        C  0.75134155  0.75070806  0.22156494     0.83200
N975        N  0.72711535  0.72718839  0.24250548    -0.79300
C976        C  0.72980319  0.71796305  0.82003409     0.80600
N977        N  0.75340416  0.74005863  0.79688599    -0.77700
C978        C  0.77562118  0.76441384  0.81869048     0.83100
N979        N  0.77448717  0.76624363  0.86491120    -0.77600
C980        C  0.75074317  0.74383474  0.88856717     0.83200
N981        N  0.72840063  0.71995145  0.86577403    -0.79300
C982        C  0.74558459  0.96315718  0.28672564     0.80600
N983        N  0.72397744  0.96360168  0.31292437    -0.77700
C984        C  0.70104696  0.96580844  0.29359625     0.83100
N985        N  0.69965158  0.96717975  0.24749961    -0.77600
C986        C  0.72102904  0.96642831  0.22085998     0.83200
N987        N  0.74411164  0.96459301  0.24069990    -0.79300
C988        C  0.74455095  0.96624935  0.81806942     0.80600
N989        N  0.74229099  0.96228479  0.86377299    -0.77700
C990        C  0.72019623  0.96372932  0.88746069     0.83100
N991        N  0.69961881  0.96843221  0.86470556    -0.77600
C992        C  0.70162311  0.97208112  0.81856998     0.83200
N993        N  0.72442555  0.97145116  0.79583945    -0.79300
C994        C  0.98553533  0.74003604  0.28725527     0.80600
N995        N  0.98128479  0.73597634  0.24156611    -0.77700
C996        C  0.98101275  0.71188444  0.22128847     0.83100
N997        N  0.98414433  0.69152789  0.24712843    -0.77600
C998        C  0.98783462  0.69515908  0.29282912     0.83200
N999        N  0.98898369  0.71970133  0.31258408    -0.79300
C1000       C  0.97239003  0.73152074  0.81885166     0.80600
N1001       N  0.97068879  0.70758775  0.79666683    -0.77700
C1002       C  0.97119660  0.68475860  0.81952880     0.83100
N1003       N  0.97266947  0.68559979  0.86590334    -0.77600
C1004       C  0.97353980  0.70934414  0.88868281     0.83200
N1005       N  0.97368638  0.73232854  0.86488058    -0.79300
O1006       O  0.92493986  0.50340987  0.49659851    -0.87800
C1007       C  0.57667275  0.56960920  0.62019664     1.12300
O1008       O  0.95978948  0.97990967  0.55293723    -1.35600
O1009       O  0.55790481  0.57405875  0.50493695    -0.89300
O1010       O  0.89822645  0.95339181  0.50365560    -0.89900
O1011       O  0.96126808  0.94910492  0.45757670    -0.78700
O1012       O  0.99108768  0.53925087  0.50984044    -1.00800
C1013       C  0.54722468  0.97960272  0.47313859     1.22300
O1014       O  0.99238467  0.94964857  0.55479628    -1.35700
Mn1015     Mn  0.99109546  0.98070728  0.60329578     1.82100
O1016       O  0.52426876  0.98015595  0.45968353    -0.77800
O1017       O  0.58193426  0.54765077  0.50064554    -0.87200
C1018       C  0.54675593  0.98378354  0.64011783     1.13400
C1019       C  0.57758978  0.56884727  0.48728055     1.08100
O1020       O  0.96013473  0.94856880  0.64960495    -0.78800
O1021       O  0.52237508  0.51246625  0.55418313    -1.32500
O1022       O  0.93289092  0.92008824  0.59633508    -0.98000
C1023       C  0.99511472  0.89469111  0.49023257     1.06800
Mn1024     Mn  0.56564429  0.51623309  0.55407743     1.48600
O1025       O  0.96920335  0.89099580  0.49971289    -0.87200
Mn1026     Mn  0.91735559  0.93914163  0.55435163     1.49600
O1027       O  0.92119704  0.00396297  0.59738384    -0.91000
C1028       C  0.99209626  0.53522447  0.46919775     1.20000
C1029       C  0.90213835  0.97924826  0.61634553     1.12100
Mn1030     Mn  0.99217620  0.98056408  0.50445635     1.81000
O1031       O  0.55165187  0.98333749  0.59959651    -0.96200
Mn1032     Mn  0.95598259  0.51945241  0.55022261     1.49300
C1033       C  0.90415923  0.97796729  0.48385939     1.08600
Mn1034     Mn  0.53324399  0.94809922  0.55920651     1.49900
C1035       C  0.99218079  0.89398191  0.62211709     1.11500
O1036       O  0.93299014  0.92150237  0.51090427    -1.02000
O1037       O  0.58325881  0.55086993  0.60268225    -0.91700
C1038       C  0.93713033  0.92644083  0.47021596     1.22800
O1039       O  0.55183943  0.98078313  0.51403017    -1.02400
O1040       O  0.55463021  0.57252879  0.60712229    -0.89800
O1041       O  0.51781584  0.91665561  0.61287460    -0.89400
O1042       O  0.89940170  0.95378292  0.60622082    -0.89400
Mn1043     Mn  0.52339780  0.55459951  0.55427547     1.47900
O1044       O  0.52239001  0.98209783  0.65153366    -0.77900
C1045       C  0.93742827  0.92450282  0.63710601     1.15800
O1046       O  0.99202141  0.51174471  0.45688670    -0.76600
O1047       O  0.98926676  0.51142158  0.64882197    -0.76200
Mn1048     Mn  0.95265774  0.90656518  0.55228724     1.51100
O1049       O  0.51942798  0.91348721  0.51111808    -0.88600
O1050       O  0.98834393  0.53912722  0.59552788    -0.96100
O1051       O  0.96787009  0.88770595  0.60155861    -0.91100
C1052       C  0.98745586  0.53392039  0.63631799     1.13600
C1053       C  0.96806604  0.62786002  0.73182727     0.16300
C1054       C  0.46759365  0.61359508  0.69099155    -0.32700
C1055       C  0.97460438  0.59048644  0.69281845     0.20700
C1056       C  0.98273810  0.58238075  0.73317736     0.02900
C1057       C  0.98382188  0.59717350  0.77417892    -0.22400
C1058       C  0.97642924  0.62029189  0.77249428     0.12100
S1059       S  0.96106794  0.65693454  0.73544956    -0.06100
C1060       C  0.96983855  0.65972633  0.79249670    -0.09500
C1061       C  0.97729138  0.63849098  0.80785769    -0.26100
S1062       S  0.99138352  0.55417970  0.72695995    -0.03300
C1063       C  0.98433819  0.55388881  0.66941463    -0.16800
C1064       C  0.97559600  0.57442538  0.65634781    -0.14800
H1065       H  0.46204168  0.62036368  0.65913193     0.20600
H1066       H  0.99054571  0.59125653  0.80573028     0.16600
H1067       H  0.98397865  0.63715920  0.84235007     0.19100
H1068       H  0.47118460  0.57817713  0.62139380     0.12500
C1069       C  0.96346091  0.78405467  0.73595681     0.16300
C1070       C  0.95544011  0.79609452  0.69942167    -0.32700
C1071       C  0.97250652  0.82729967  0.69209430     0.20700
C1072       C  0.99673659  0.84593821  0.71964410     0.02900
C1073       C  0.00432092  0.83394925  0.75722122    -0.22400
C1074       C  0.98700897  0.80252977  0.76476143     0.12100
S1075       S  0.94689116  0.74641734  0.74757187    -0.06100
C1076       C  0.97137593  0.75539696  0.79246032    -0.09500
C1077       C  0.99135502  0.78610670  0.79805340    -0.26100
S1078       S  0.01589572  0.88297539  0.70208927    -0.03300
C1079       C  0.99046163  0.87296853  0.65790788    -0.16800
C1080       C  0.96855700  0.84268263  0.65723479    -0.14800
H1081       H  0.93710103  0.78162181  0.67692863     0.20600
H1082       H  0.02322943  0.84829967  0.77889242     0.16600
H1083       H  0.00893052  0.79566144  0.82356641     0.19100
H1084       H  0.95119078  0.83221956  0.63152836     0.12500
C1085       C  0.99579086  0.64380886  0.38028449     0.16300
C1086       C  0.99975146  0.63087773  0.41969943    -0.32700
C1087       C  0.99606994  0.60192683  0.41628310     0.20700
C1088       C  0.98889298  0.58631319  0.37547038     0.02900
C1089       C  0.98498961  0.59935274  0.33573418    -0.22400
C1090       C  0.98860848  0.62846737  0.33920267     0.12100
S1091       S  0.99873275  0.67850938  0.37814469    -0.06100
C1092       C  0.99032618  0.67263771  0.32108544    -0.09500
C1093       C  0.98549999  0.64501253  0.30490349    -0.26100
S1094       S  0.98495313  0.55098847  0.37952009    -0.03300
C1095       C  0.99277321  0.55756243  0.43679719    -0.16800
C1096       C  0.99833413  0.58564609  0.45131375    -0.14800
H1097       H  0.00521146  0.64278492  0.45184512     0.20600
H1098       H  0.97919241  0.58730568  0.30371484     0.16600
H1099       H  0.97972216  0.63733517  0.27010983     0.19100
H1100       H  0.00341630  0.59363885  0.48608180     0.12500
C1101       C  0.51038658  0.84333275  0.41316960     0.16300
C1102       C  0.52061822  0.82473924  0.39510222    -0.32700
C1103       C  0.50317199  0.80423416  0.36111829     0.20700
C1104       C  0.97753912  0.80335574  0.34384623     0.02900
C1105       C  0.96703176  0.82183319  0.36203935    -0.22400
C1106       C  0.98379167  0.84159972  0.39746842     0.12100
S1107       S  0.52755069  0.86825423  0.45649787    -0.06100
C1108       C  0.99774676  0.87544849  0.45538168    -0.09500
C1109       C  0.97626051  0.85973954  0.42210908    -0.26100
S1110       S  0.95977951  0.77660455  0.30250136    -0.03300
C1111       C  0.98691729  0.76640584  0.30965463    -0.16800
C1112       C  0.50827577  0.78279106  0.34195806    -0.14800
H1113       H  0.54084741  0.82558165  0.40797332     0.20600
H1114       H  0.94628068  0.82023476  0.35005795     0.16600
H1115       H  0.95597990  0.86102310  0.41694106     0.19100
H1116       H  0.52668969  0.77913700  0.35120861     0.12500
C1117       C  0.98079214  0.69620239  0.09346549     0.16300
C1118       C  0.98409080  0.68652515  0.05028270    -0.32700
C1119       C  0.97758692  0.69889164  0.01220115     0.20700
C1120       C  0.96812179  0.71986667  0.01705479     0.02900
C1121       C  0.46476224  0.72929063  0.06055231    -0.22400
C1122       C  0.47103028  0.71680310  0.09861628     0.12100
S1123       S  0.98826367  0.68449861  0.14373248    -0.06100
C1124       C  0.97878619  0.70831417  0.17145387    -0.09500
C1125       C  0.46995938  0.72401646  0.14325499    -0.26100
S1126       S  0.46277700  0.73306941  0.96732955    -0.03300
C1127       C  0.97270738  0.70999135  0.93884761    -0.16800
C1128       C  0.98002764  0.69290459  0.96728809    -0.14800
H1129       H  0.99172166  0.67033972  0.04653422     0.20600
H1130       H  0.45798308  0.74614100  0.06421189     0.16600
H1131       H  0.46385718  0.74044012  0.15440504     0.19100
H1132       H  0.98725010  0.67740869  0.95576834     0.12500
C1133       C  0.84767829  0.99143795  0.69069039     0.16300
C1134       C  0.82850238  0.00116266  0.70797166    -0.32700
C1135       C  0.80755775  0.98322984  0.74134214     0.20700
C1136       C  0.80633466  0.95722003  0.75807159     0.02900
C1137       C  0.82536526  0.94724205  0.74032802    -0.22400
C1138       C  0.84575593  0.96475850  0.70573837     0.12100
S1139       S  0.87371674  0.00969111  0.64890357    -0.06100
C1140       C  0.88144979  0.98054314  0.65000655    -0.09500
C1141       C  0.86500551  0.95819543  0.68213930    -0.26100
S1142       S  0.77964356  0.93922234  0.79964311    -0.03300
C1143       C  0.76946444  0.96646055  0.79284401    -0.16800
C1144       C  0.78620766  0.98838064  0.76065768    -0.14800
H1145       H  0.82964153  0.52133233  0.69662666     0.20600
H1146       H  0.82399126  0.92653581  0.75237802     0.16600
H1147       H  0.86668425  0.93809040  0.68736608     0.19100
H1148       H  0.78295099  0.50687684  0.75295077     0.12500
C1149       C  0.65329749  0.98632514  0.73332503     0.16300
C1150       C  0.64163841  0.99192395  0.69389223    -0.32700
C1151       C  0.61275422  0.98832524  0.69623764     0.20700
C1152       C  0.59608505  0.97988191  0.73622313     0.02900
C1153       C  0.60796861  0.97453377  0.77617643    -0.22400
C1154       C  0.63699735  0.97783748  0.77369389     0.12100
S1155       S  0.68727958  0.98804281  0.73580178    -0.06100
C1156       C  0.67999651  0.97719719  0.79208053    -0.09500
C1157       C  0.65237938  0.97268906  0.80792241    -0.26100
S1158       S  0.56077199  0.97565432  0.73052106    -0.03300
C1159       C  0.56873814  0.98488952  0.67364110    -0.16800
C1160       C  0.59734471  0.99130839  0.66056532    -0.14800
H1161       H  0.65432675  0.99818674  0.66232549     0.20600
H1162       H  0.59497705  0.96754907  0.80743125     0.16600
H1163       H  0.64376602  0.96537813  0.84206497     0.19100
H1164       H  0.60618688  0.99712274  0.62622136     0.12500
C1165       C  0.85838038  0.98699161  0.38754294     0.16300
C1166       C  0.84571079  0.99814928  0.35603226    -0.32700
C1167       C  0.81629496  0.97825162  0.34070563     0.20700
C1168       C  0.80041609  0.94842599  0.35551292     0.02900
C1169       C  0.81347263  0.93702731  0.38582148    -0.22400
C1170       C  0.84262362  0.95706253  0.40181452     0.12100
S1171       S  0.89216310  0.00837708  0.41444433    -0.06100
C1172       C  0.88477881  0.97675967  0.44577323    -0.09500
C1173       C  0.85786319  0.95093808  0.43466466    -0.26100
S1174       S  0.76392550  0.92880362  0.33693621    -0.03300
C1175       C  0.77020607  0.96096080  0.30855838    -0.16800
C1176       C  0.79910498  0.98548241  0.31322155    -0.14800
H1177       H  0.85771252  0.02165570  0.34552542     0.20600
H1178       H  0.80090374  0.91392066  0.39808400     0.16600
H1179       H  0.84915451  0.92920366  0.45140016     0.19100
H1180       H  0.80657307  0.00778761  0.29926931     0.12500
C1181       C  0.64841668  0.96901963  0.38393697     0.16300
C1182       C  0.63456884  0.97015342  0.42436313    -0.32700
C1183       C  0.60883754  0.97303037  0.42090896     0.20700
C1184       C  0.59713378  0.97456323  0.37910193     0.02900
C1185       C  0.61103146  0.97339791  0.33845264    -0.22400
C1186       C  0.63698052  0.97065203  0.34191838     0.12100
S1187       S  0.68004393  0.96595001  0.38136731    -0.06100
C1188       C  0.67818705  0.96697879  0.32289461    -0.09500
C1189       C  0.65401649  0.96947297  0.30661712    -0.26100
S1190       S  0.56554205  0.97799487  0.38285757    -0.03300
C1191       C  0.56843196  0.97752767  0.44131952    -0.16800
C1192       C  0.59256396  0.97474212  0.45652551    -0.14800
H1193       H  0.64356278  0.96898000  0.45718219     0.20600
H1194       H  0.60210529  0.97468635  0.30564718     0.16600
H1195       H  0.64927683  0.97055263  0.27096239     0.19100
H1196       H  0.59791974  0.97394143  0.49198782     0.12500
C1197       C  0.70581388  0.96836558  0.09276710     0.16300
C1198       C  0.69476355  0.96994857  0.04966879    -0.32700
C1199       C  0.70860997  0.96569255  0.01128885     0.20700
C1200       C  0.73234784  0.96010018  0.01583653     0.02900
C1201       C  0.74340452  0.95860208  0.05877389    -0.22400
C1202       C  0.72964987  0.96291058  0.09700216     0.12100
S1203       S  0.69202426  0.97251273  0.14359881    -0.06100
C1204       C  0.71874969  0.96693735  0.17077306    -0.09500
C1205       C  0.73724887  0.96219363  0.14153901    -0.26100
S1206       S  0.74649304  0.95597284  0.96563710    -0.03300
C1207       C  0.72031026  0.96195569  0.93768282    -0.16800
C1208       C  0.70151653  0.96674288  0.96636915    -0.14800
H1209       H  0.67622508  0.97431951  0.04621960     0.20600
H1210       H  0.76201336  0.95433059  0.06222233     0.16600
H1211       H  0.75511258  0.95806718  0.15228404     0.19100
H1212       H  0.68405472  0.97130230  0.95502532     0.12500
C1213       C  0.83041238  0.81950420  0.72958272     0.16300
C1214       C  0.84418237  0.83421438  0.68897223    -0.32700
C1215       C  0.87255188  0.86024491  0.69167948     0.20700
C1216       C  0.88688363  0.87136145  0.73298097     0.02900
C1217       C  0.87302237  0.85647022  0.77400197    -0.22400
C1218       C  0.84431255  0.83025626  0.77130782     0.12100
S1219       S  0.79604618  0.78768219  0.73239149    -0.06100
C1220       C  0.79983417  0.78836641  0.79069663    -0.09500
C1221       C  0.82668556  0.81241213  0.80689037    -0.26100
S1222       S  0.92131530  0.90383397  0.72799885    -0.03300
C1223       C  0.91592621  0.90209345  0.66981942    -0.16800
C1224       C  0.88902119  0.87757118  0.65561238    -0.14800
H1225       H  0.83314936  0.82574934  0.65651722     0.20600
H1226       H  0.88400573  0.86499553  0.80644474     0.16600
H1227       H  0.83300939  0.81645063  0.84242489     0.19100
H1228       H  0.88167221  0.87280352  0.62051963     0.12500
C1229       C  0.68017860  0.65123670  0.74340665     0.16300
C1230       C  0.66932231  0.62865291  0.71024504    -0.32700
C1231       C  0.63914127  0.61611445  0.69710495     0.20700
C1232       C  0.62041234  0.62549713  0.71615448     0.02900
C1233       C  0.63104215  0.64752659  0.75047343    -0.22400
C1234       C  0.66138881  0.66017869  0.76358730     0.12100
S1235       S  0.71691482  0.67126611  0.76012272    -0.06100
C1236       C  0.70689284  0.69158828  0.79533642    -0.09500
C1237       C  0.67660600  0.68315756  0.79424014    -0.26100
S1238       S  0.58524963  0.60919618  0.69233329    -0.03300
C1239       C  0.59601774  0.58942341  0.65677411    -0.16800
C1240       C  0.62516696  0.59514833  0.66358173    -0.14800
H1241       H  0.68405414  0.62186234  0.69425043     0.20600
H1242       H  0.61661771  0.65513400  0.76522218     0.16600
H1243       H  0.66670387  0.69428710  0.81294733     0.19700
H1244       H  0.63598912  0.58537669  0.64377469     0.12500
C1245       C  0.82239697  0.83102772  0.38065247     0.16300
C1246       C  0.83683983  0.84585799  0.42072820    -0.32700
C1247       C  0.86687465  0.86921678  0.41741863     0.20700
C1248       C  0.88190407  0.87803203  0.37603080     0.02900
C1249       C  0.86728233  0.86334153  0.33566798    -0.22400
C1250       C  0.83726063  0.83949356  0.33907523     0.12100
S1251       S  0.78671681  0.80077491  0.37839285    -0.06100
C1252       C  0.79177420  0.79901427  0.32077048    -0.09500
C1253       C  0.81964275  0.82127315  0.30436735    -0.26100
S1254       S  0.91864894  0.90677420  0.38004644    -0.03300
C1255       C  0.91356769  0.90634759  0.43809709    -0.16800
C1256       C  0.88485935  0.88527085  0.45295490    -0.14800
H1257       H  0.82538588  0.83899009  0.45329006     0.20600
H1258       H  0.87895686  0.86976101  0.30325885     0.16600
H1259       H  0.82698870  0.82335749  0.26930385     0.19100
H1260       H  0.87750505  0.88182017  0.48815054     0.12500
C1261       C  0.65612201  0.67430125  0.36252104     0.16300
C1262       C  0.63286014  0.66217645  0.39487848    -0.32700
C1263       C  0.62191466  0.63222463  0.40891953     0.20700
C1264       C  0.63348181  0.61493122  0.39139266     0.02900
C1265       C  0.65625971  0.62681229  0.35794435    -0.22400
C1266       C  0.66733772  0.65694092  0.34398733     0.12100
S1267       S  0.67438661  0.71112394  0.34505426    -0.06100
C1268       C  0.69708765  0.70312886  0.31166696    -0.09500
C1269       C  0.69072315  0.67335678  0.31407875    -0.26100
S1270       S  0.61884832  0.57995858  0.41611936    -0.03300
C1271       C  0.59688993  0.58881742  0.45024458    -0.16800
C1272       C  0.60065457  0.61724946  0.44210054    -0.14800
H1273       H  0.62436749  0.67586143  0.40966374     0.20600
H1274       H  0.66559585  0.61351291  0.34451382     0.16600
H1275       H  0.70355226  0.66470738  0.29690545     0.19100
H1276       H  0.58938412  0.62698613  0.46086924     0.12500
C1277       C  0.76828722  0.76418834  0.09317080     0.16300
C1278       C  0.78021762  0.77547221  0.04972347    -0.32700
C1279       C  0.76330974  0.75899167  0.01181224     0.20700
C1280       C  0.73579851  0.73255783  0.01716326     0.02900
C1281       C  0.72394388  0.72131695  0.06043380    -0.22400
C1282       C  0.74081552  0.73768489  0.09818932     0.12100
S1283       S  0.78491221  0.78084182  0.14351836    -0.06100
C1284       C  0.75449524  0.75172864  0.17153557    -0.09500
C1285       C  0.73283360  0.73036754  0.14294236    -0.26100
S1286       S  0.71873263  0.71556275  0.96753469    -0.03300
C1287       C  0.74897316  0.74418417  0.93871493    -0.16800
C1288       C  0.77103519  0.76587438  0.96667408    -0.14800
H1289       H  0.80168354  0.79613574  0.04567299     0.20600
H1290       H  0.70247710  0.70064528  0.06448669     0.16600
H1291       H  0.71209992  0.71073805  0.15423993     0.19100
H1292       H  0.79169787  0.78530482  0.95471772     0.12500
loop_ 
_geom_bond_atom_site_label_1 
_geom_bond_atom_site_label_2 
_geom_bond_distance 
_geom_bond_site_symmetry_2 
_ccdc_geom_bond_type 
C1            N2   1.355       .  A
C1            N6   1.360       .  A
C1          C299   1.468       .  S
N2            C3   1.356       .  A
C3            N4   1.358       .  A
C3          C283   1.473       .  S
N4            C5   1.360       .  A
C5            N6   1.364       .  A
C5          C315   1.476       .  S
C7            N8   1.350       .  A
C7           N12   1.353       .  A
C7          C267   1.464       .  S
N8            C9   1.355       .  A
C9           N10   1.364       .  A
C9          C251   1.476       .  S
N10          C11   1.368       .  A
C11          N12   1.362       .  A
C11         C318   1.476       .  S
C13          N14   1.357       .  A
C13          N18   1.359       .  A
C13         C206   1.470       .  S
N14          C15   1.359       .  A
C15          N16   1.359       .  A
C15         C219   1.477       .  S
N16          C17   1.361       .  A
C17          N18   1.363       .  A
C17         C235   1.479       .  S
C19          N20   1.354       .  A
C19          N24   1.353       .  A
C19         C174   1.469       .  S
N20          C21   1.361       .  A
C21          N22   1.367       .  A
C21         C238   1.479       .  S
N22          C23   1.365       .  A
C23          N24   1.358       .  A
C23         C187   1.480       .  S
C25          N26   1.360       .  A
C25          N30   1.358       .  A
C25         C142   1.472       .  S
N26          C27   1.363       .  A
C27          N28   1.359       .  A
C27         C155   1.475       .  S
N28          C29   1.357       .  A
C29          N30   1.358       .  A
C29         C123   1.474       .  S
C31          N32   1.351       .  A
C31          N36   1.354       .  A
C31         C107   1.467       .  S
N32          C33   1.356       .  A
C33          N34   1.364       .  A
C33          C91   1.479       .  S
N34          C35   1.368       .  A
C35          N36   1.362       .  A
C35         C158   1.476       .  S
O37         Mn63   2.095       .  S
O37         C387   1.271   1_545  A
C38         C270   1.469       .  S
C38          O71   1.269       .  A
C38          O68   1.273       .  A
O39         Mn46   2.168       .  S
O39         Mn57   2.126       .  S
O39         Mn61   2.172       .  S
O39        Mn386   2.123       .  S
O40         Mn74   2.105       .  S
O40          C50   1.274       .  A
O41         Mn57   2.101       .  S
O41          C64   1.273       .  A
O42         Mn61   2.108       .  S
O42          C69   1.251       .  A
O43         Mn63   1.954       .  S
O43        Mn720   1.950       .  S
O43          C59   1.218       .  S
C44         C222   1.475       .  S
C44          O47   1.254       .  A
C44          O70   1.221       .  S
O45         Mn46   2.162       .  S
O45         Mn79   2.121       .  S
O45         Mn61   2.165       .  S
O45        Mn711   2.127       .  S
Mn46         O51   2.103       .  S
Mn46        O721   2.109       .  S
Mn46        O401   2.100       .  S
Mn46       O1021   2.163       .  S
O47        Mn707   2.107   1_455  S
O48         Mn55   2.092       .  S
O48          C50   1.271       .  A
C49         C190   1.476       .  S
C49          O75   1.252       .  A
C49          O62   1.219       .  S
C50         C302   1.476       .  S
O51          C76   1.252       .  A
O52         Mn55   2.125       .  S
O52         Mn74   2.126       .  S
O52       Mn1015   2.163   1_445  S
O52       Mn1030   2.166   1_445  S
O53         Mn57   1.967       .  S
O53         Mn79   1.969       .  S
O53          C76   1.220       .  S
C54         C139   1.475       .  S
C54          O56   1.273       .  A
C54         O726   1.272       .  A
Mn55         O68   2.096       .  S
Mn55        O393   1.967   1_545  S
Mn55        O385   1.961   1_545  S
O56         Mn79   2.101       .  S
Mn57         O73   2.101       .  S
Mn57         O67   1.952       .  S
O58        Mn386   2.092       .  S
O58          C60   1.272       .  A
C59         C126   1.472       .  S
C59          O77   1.252       .  A
C60         C171   1.475       .  S
C60          O73   1.273       .  A
Mn61        O693   2.105       .  S
Mn61        O400   2.111       .  S
Mn61       O1021   2.166       .  S
O62         Mn65   1.963       .  S
O62        Mn378   1.962       .  S
Mn63        O381   2.092       .  S
Mn63        O362   2.123   1_545  S
Mn63         O81   1.968       .  S
C64         C203   1.479       .  S
C64         O360   1.272       .  A
Mn65         O72   2.098       .  S
Mn65         O80   2.095       .  S
Mn65        O691   2.126   1_455  S
Mn65         O70   1.960       .  S
C66         C110   1.472       .  S
C66          O82   1.272       .  A
C66         O718   1.271       .  A
O67         Mn79   1.958       .  S
O67          C69   1.217       .  S
C69         C286   1.470       .  S
O70        Mn378   1.969       .  S
O71         Mn74   2.085       .  S
O72         C712   1.271   1_455  A
Mn74        O689   1.951   1_455  S
Mn74        O727   1.976   1_455  S
O75        Mn692   2.107   1_455  S
C76         C254   1.473       .  S
O77        Mn384   2.112   1_545  S
O78        Mn369   2.099   1_545  S
O78          C83   1.252       .  A
Mn79         O82   2.090       .  S
O80         C700   1.272   1_455  A
O81        Mn720   1.977       .  S
O81          C83   1.223       .  S
C83          C94   1.476       .  S
C84          S90   1.697       .  A
C84          C89   1.387       .  A
C84         C731   1.397       .  A
C85         C730   1.397       .  A
C85         C732   1.397       .  A
C85          H96   1.083       .  S
C86          C95   1.368       .  A
C86          C87   1.386       .  A
C86         C731   1.397       .  A
C87          S93   1.716       .  A
C87          C88   1.410       .  A
C88          C89   1.410       .  A
C88          H97   1.083       .  S
C89          C92   1.382       .  A
S90          C91   1.723       .  A
C91          C92   1.392       .  A
C92          H98   1.083       .  S
S93          C94   1.728       .  A
C94          C95   1.384       .  A
C95         H745   1.083       .  S
H99         C741   1.083       .  S
C100        S106   1.701       .  A
C100        C105   1.388       .  A
C100        C101   1.396       .  A
C101        C102   1.397       .  A
C101        H112   1.083       .  S
C102        C111   1.364       .  A
C102        C103   1.386       .  A
C103        S109   1.716       .  A
C103        C104   1.407       .  A
C104        C105   1.408       .  A
C104        H113   1.083       .  S
C105        C108   1.376       .  A
S106        C107   1.718       .  A
C107        C108   1.389       .  A
C108        H114   1.083       .  S
S109        C110   1.726       .  A
C110        C111   1.383       .  A
C111        H115   1.083       .  S
C116        S122   1.703       .  A
C116        C121   1.387       .  A
C116        C117   1.396       .  A
C117        C118   1.398       .  A
C117        H128   1.083       .  S
C118        C127   1.362       .  A
C118        C119   1.386       .  A
C119        S125   1.717       .  A
C119        C120   1.406       .  A
C120        C121   1.408       .  A
C120        H129   1.083       .  S
C121        C124   1.374       .  A
S122        C123   1.721       .  A
C123        C124   1.391       .  A
C124        H130   1.083       .  S
S125        C126   1.725       .  A
C126        C127   1.384       .  A
C127        H131   1.084       .  S
C132        S138   1.704       .  A
C132        C133   1.399       .  A
C132        C783   1.387   1_455  A
C133        C134   1.400       .  A
C133        H144   1.083       .  S
C134        C143   1.369       .  A
C134        C781   1.387   1_455  A
C135        S141   1.714       .  A
C135        C136   1.407       .  A
C135        C780   1.387       .  A
C136        C137   1.407       .  A
C136        H145   1.083       .  S
C137        C140   1.376       .  A
C137        C778   1.387       .  A
S138        C785   1.722   1_455  A
C139        S784   1.722       .  A
C139        C140   1.390       .  A
C140        H146   1.083       .  S
S141        C142   1.724       .  A
C142        C789   1.385       .  A
C143        C788   1.384   1_455  A
C143        H147   1.083       .  S
C148        S154   1.706       .  A
C148        C149   1.404       .  A
C148        C799   1.387       .  A
C149        C150   1.403       .  A
C149        H160   1.083       .  S
C150        C159   1.376   1_554  A
C150        C151   1.387       .  A
C151        S803   1.703   1_554  A
C151        C798   1.402       .  A
C152        C153   1.402       .  A
C152        C797   1.402       .  A
C152        H161   1.083       .  S
C153        C156   1.373       .  A
C153        C794   1.387       .  A
S154        C155   1.725       .  A
C155        C802   1.386       .  A
C156        C801   1.387       .  A
C156        H162   1.083       .  S
S157        C797   1.704   1_556  A
S157        C804   1.725       .  A
C158        S803   1.725       .  A
C158        C159   1.387       .  A
C159        H163   1.083       .  S
C164        S170   1.703       .  A
C164        C169   1.387       .  A
C164        C165   1.399       .  A
C165        C166   1.400       .  A
C165        H499   1.083       .  S
C166        C175   1.369       .  A
C166        C167   1.387       .  A
C167        S173   1.713       .  A
C167        C168   1.406       .  A
C168        C169   1.407       .  A
C168        H177   1.083       .  S
C169        C172   1.376       .  A
S170        C171   1.722       .  A
C171        C172   1.390       .  A
C172        H178   1.083       .  S
S173        C174   1.724       .  A
C174        C175   1.383       .  A
C175        H502   1.083       .  S
H176        C488   1.083       .  S
H179        C498   1.083   1_545  S
C180        S186   1.699       .  A
C180        C185   1.387       .  A
C180        C181   1.397       .  A
C181        C182   1.397       .  A
C181        H192   1.083       .  S
C182        C191   1.366       .  A
C182        C183   1.386       .  A
C183        S189   1.717       .  A
C183        C184   1.410       .  A
C184        C185   1.410       .  A
C184        H193   1.083       .  S
C185        C188   1.381       .  A
S186        C187   1.723       .  A
C187        C188   1.393       .  A
C188        H194   1.083       .  S
S189        C190   1.727       .  A
C190        C191   1.384       .  A
C191        H195   1.083       .  S
C196        S202   1.711       .  A
C196        C201   1.387       .  A
C196        C197   1.404       .  A
C197        C198   1.405       .  A
C197        H208   1.083       .  S
C198        C207   1.375       .  A
C198        C199   1.387       .  A
C199        S205   1.710       .  A
C199        C200   1.403       .  A
C200        C201   1.404       .  A
C200        H209   1.083       .  S
C201        C204   1.373       .  A
S202        C203   1.726       .  A
C203        C204   1.389       .  A
C204        H210   1.083       .  S
S205        C206   1.721       .  A
C206        C207   1.386       .  A
C207        H211   1.083       .  S
C212        S218   1.704       .  A
C212        C217   1.387       .  A
C212        C213   1.398       .  A
C213        C214   1.400       .  A
C213        H224   1.083       .  S
C214        C223   1.366       .  A
C214        C215   1.386       .  A
C215        S221   1.716       .  A
C215        C216   1.407       .  A
C216        C217   1.408       .  A
C216        H225   1.083       .  S
C217        C220   1.376       .  A
S218        C219   1.722       .  A
C219        C220   1.391       .  A
C220        H226   1.083       .  S
S221        C222   1.726       .  A
C222        C223   1.386       .  A
C223        H227   1.083       .  S
C228        S234   1.710       .  A
C228        C233   1.386       .  A
C228        C229   1.406       .  A
C229        C230   1.406       .  A
C229        H240   1.083       .  S
C230        C239   1.377   1_554  A
C230        C231   1.387       .  A
C231        S237   1.703   1_554  A
C231        C232   1.401       .  A
C232        C233   1.401       .  A
C232        H241   1.083       .  S
C233        C236   1.372       .  A
S234        C235   1.727       .  A
C235        C236   1.387       .  A
C236        H242   1.083       .  S
S237        C238   1.725       .  A
C238        C239   1.390       .  A
C239        H243   1.083       .  S
C244        S250   1.695       .  A
C244        C249   1.387       .  A
C244        C245   1.395       .  A
C245        C246   1.395       .  A
C245        H256   1.083       .  S
C246        C255   1.364       .  A
C246        C247   1.386       .  A
C247        S253   1.716       .  A
C247        C248   1.409       .  A
C248        C249   1.410       .  A
C248        H257   1.083       .  S
C249        C252   1.381       .  A
S250        C251   1.722       .  A
C251        C252   1.391       .  A
C252        H258   1.083       .  S
S253        C254   1.727       .  A
C254        C255   1.383       .  A
C255        H259   1.084       .  S
C260        S266   1.701       .  A
C260        C265   1.388       .  A
C260        C261   1.397       .  A
C261        C262   1.398       .  A
C261        H272   1.083       .  S
C262        C271   1.366       .  A
C262        C263   1.387       .  A
C263        S269   1.711       .  A
C263        C264   1.405       .  A
C264        C265   1.406       .  A
C264        H273   1.083       .  S
C265        C268   1.374       .  A
S266        C267   1.718       .  A
C267        C268   1.386       .  A
C268        H274   1.083       .  S
S269        C270   1.725       .  A
C270        C271   1.383       .  A
C271        H275   1.083       .  S
C276        S282   1.702       .  A
C276        C281   1.387       .  A
C276        C277   1.396       .  A
C277        C278   1.398       .  A
C277        H288   1.083       .  S
C278        C287   1.363       .  A
C278        C279   1.386       .  A
C279        S285   1.715       .  A
C279        C280   1.405       .  A
C280        C281   1.407       .  A
C280        H289   1.083       .  S
C281        C284   1.373       .  A
S282        C283   1.721       .  A
C283        C284   1.389       .  A
C284        H290   1.083       .  S
S285        C286   1.724       .  A
C286        C287   1.385       .  A
C287        H291   1.083       .  S
C292        S298   1.704       .  A
C292        C297   1.388       .  A
C292        C293   1.400       .  A
C293        C294   1.400       .  A
C293        H304   1.083       .  S
C294        C303   1.370       .  A
C294        C295   1.387       .  A
C295        S301   1.712       .  A
C295        C296   1.407       .  A
C296        C297   1.407       .  A
C296        H305   1.083       .  S
C297        C300   1.377       .  A
S298        C299   1.719       .  A
C299        C300   1.388       .  A
C300        H306   1.083       .  S
S301        C302   1.727       .  A
C302        C303   1.386       .  A
C303        H307   1.083       .  S
C308        S314   1.708       .  A
C308        C313   1.387       .  A
C308        C309   1.405       .  A
C309        C310   1.405       .  A
C309        H320   1.083       .  S
C310        C319   1.376   1_554  A
C310        C311   1.387       .  A
C311        S317   1.701   1_554  A
C311        C312   1.400       .  A
C312        C313   1.400       .  A
C312        H321   1.083       .  S
C313        C316   1.371       .  A
S314        C315   1.727       .  A
C315        C316   1.386       .  A
C316        H322   1.083       .  S
S317        C318   1.724       .  A
C318        C319   1.389       .  A
C319        H323   1.083       .  S
C324        N325   1.355       .  A
C324        N329   1.360       .  A
C324        C622   1.469       .  S
N325        C326   1.356       .  A
C326        N327   1.358       .  A
C326        C606   1.473       .  S
N327        C328   1.360       .  A
C328        N329   1.364       .  A
C328        C638   1.476       .  S
C330        N331   1.350       .  A
C330        N335   1.353       .  A
C330        C590   1.464       .  S
N331        C332   1.356       .  A
C332        N333   1.364       .  A
C332        C574   1.477       .  S
N333        C334   1.367       .  A
C334        N335   1.362       .  A
C334        C641   1.477       .  S
C336        N337   1.357       .  A
C336        N341   1.359       .  A
C336        C529   1.469       .  S
N337        C338   1.359       .  A
C338        N339   1.360       .  A
C338        C542   1.478       .  S
N339        C340   1.361       .  A
C340        N341   1.363       .  A
C340        C558   1.478       .  S
C342        N343   1.354       .  A
C342        N347   1.353       .  A
C342        C497   1.469       .  S
N343        C344   1.361       .  A
C344        N345   1.367       .  A
C344        C561   1.479       .  S
N345        C346   1.365       .  A
C346        N347   1.358       .  A
C346        C510   1.480       .  S
C348        N349   1.360       .  A
C348        N353   1.358       .  A
C348        C465   1.471       .  S
N349        C350   1.363       .  A
C350        N351   1.358       .  A
C350        C478   1.474       .  S
N351        C352   1.356       .  A
C352        N353   1.357       .  A
C352        C446   1.473       .  S
C354        N355   1.351       .  A
C354        N359   1.354       .  A
C354        C430   1.466       .  S
N355        C356   1.356       .  A
C356        N357   1.365       .  A
C356        C414   1.479       .  S
N357        C358   1.368       .  A
C358        N359   1.362       .  A
C358        C481   1.476       .  S
O360       Mn386   2.097       .  S
C361        C593   1.470       .  S
C361        O394   1.269       .  A
C361        O391   1.273       .  A
O362       Mn369   2.168       .  S
O362       Mn380   2.126       .  S
O362       Mn384   2.173       .  S
O363       Mn397   2.106       .  S
O363        C373   1.274       .  A
O364       Mn380   2.102       .  S
O364        C387   1.273       .  A
O365       Mn384   2.109       .  S
O365        C392   1.252       .  A
O366      Mn1043   1.950       .  S
O366       Mn386   1.954       .  S
O366        C382   1.217       .  S
C367        C545   1.477       .  S
C367        O370   1.254       .  A
C367        O393   1.220       .  S
O368      Mn1034   2.126       .  S
O368       Mn369   2.161       .  S
O368       Mn402   2.121       .  S
O368       Mn384   2.164       .  S
Mn369      O1044   2.110       .  S
Mn369       O374   2.104       .  S
Mn369       O698   2.163   1_565  S
O370      Mn1030   2.109   1_455  S
O371       Mn378   2.092       .  S
O371        C373   1.271       .  A
C372        C513   1.475       .  S
C372        O398   1.252       .  A
C372        O385   1.219       .  S
C373        C625   1.477       .  S
O374        C399   1.252       .  A
O375       Mn692   2.163   1_455  S
O375       Mn378   2.125       .  S
O375       Mn397   2.126       .  S
O375       Mn707   2.166   1_455  S
O376       Mn380   1.967       .  S
O376       Mn402   1.970       .  S
O376        C399   1.220       .  S
C377        C462   1.474       .  S
C377       O1049   1.272       .  A
C377        O379   1.273       .  A
Mn378       O391   2.098       .  S
O379       Mn402   2.101       .  S
Mn380       O396   2.101       .  S
Mn380       O390   1.951       .  S
O381        C383   1.271   1_545  A
C382        C449   1.470       .  S
C382        O400   1.252       .  A
C383        C494   1.474       .  S
C383        O396   1.273       .  A
Mn384      O1016   2.107       .  S
Mn384       O698   2.166   1_565  S
O385       Mn388   1.962       .  S
Mn386       O404   1.969       .  S
C387        C526   1.478       .  S
Mn388       O395   2.097       .  S
Mn388       O403   2.093       .  S
Mn388      O1014   2.126   1_455  S
Mn388       O393   1.961       .  S
C389        C433   1.472       .  S
C389       O1041   1.271       .  A
C389        O405   1.272       .  A
O390       Mn402   1.959       .  S
O390        C392   1.217       .  S
C392        C609   1.471       .  S
O394       Mn397   2.086       .  S
O395       C1035   1.271   1_455  A
Mn397      O1012   1.951   1_455  S
Mn397      O1050   1.976   1_455  S
O398      Mn1015   2.108   1_455  S
C399        C577   1.474       .  S
O401        C406   1.252       .  A
Mn402       O405   2.091       .  S
O403       C1023   1.272   1_455  A
O404      Mn1043   1.977       .  S
O404        C406   1.223       .  S
C406        C417   1.477       .  S
C407        S413   1.697       .  A
C407        C412   1.387       .  A
C407       C1054   1.397       .  A
C408       C1053   1.397       .  A
C408       C1055   1.397       .  A
C408        H419   1.083       .  S
C409       C1054   1.397       .  A
C409        C418   1.368       .  A
C409        C410   1.386       .  A
C410        S416   1.716       .  A
C410        C411   1.410       .  A
C411        C412   1.410       .  A
C411        H420   1.083       .  S
C412        C415   1.382       .  A
S413        C414   1.723       .  A
C414        C415   1.392       .  A
C415        H421   1.083       .  S
S416        C417   1.728       .  A
C417        C418   1.384       .  A
C418       H1068   1.083       .  S
H422       C1064   1.083       .  S
C423        S429   1.701       .  A
C423        C428   1.388       .  A
C423        C424   1.396       .  A
C424        C425   1.397       .  A
C424        H435   1.083       .  S
C425        C434   1.365       .  A
C425        C426   1.386       .  A
C426        S432   1.715       .  A
C426        C427   1.407       .  A
C427        C428   1.408       .  A
C427        H436   1.083       .  S
C428        C431   1.376       .  A
S429        C430   1.718       .  A
C430        C431   1.388       .  A
C431        H437   1.083       .  S
S432        C433   1.727       .  A
C433        C434   1.383       .  A
C434        H438   1.083       .  S
C439        S445   1.703       .  A
C439        C444   1.387       .  A
C439        C440   1.395       .  A
C440        C441   1.398       .  A
C440        H451   1.083       .  S
C441        C450   1.362       .  A
C441        C442   1.386       .  A
C442        S448   1.716       .  A
C442        C443   1.405       .  A
C443        C444   1.408       .  A
C443        H452   1.083       .  S
C444        C447   1.373       .  A
S445        C446   1.720       .  A
C446        C447   1.390       .  A
C447        H453   1.083       .  S
S448        C449   1.725       .  A
C449        C450   1.384       .  A
C450        H454   1.084       .  S
C455        S461   1.703       .  A
C455       C1106   1.387   1_455  A
C455        C456   1.399       .  A
C456        C457   1.400       .  A
C456        H467   1.083       .  S
C457        C466   1.369       .  A
C457       C1104   1.387   1_455  A
C458        S464   1.713       .  A
C458       C1103   1.387       .  A
C458        C459   1.406       .  A
C459        C460   1.406       .  A
C459        H468   1.083       .  S
C460       C1101   1.387       .  A
C460        C463   1.376       .  A
S461       C1108   1.722   1_455  A
C462       S1107   1.722       .  A
C462        C463   1.390       .  A
C463        H469   1.083       .  S
S464        C465   1.723       .  A
C465       C1112   1.384       .  A
C466       C1111   1.384   1_455  A
C466        H470   1.083       .  S
C471        S477   1.706       .  A
C471       C1122   1.387       .  A
C471        C472   1.404       .  A
C472        C473   1.403       .  A
C472        H483   1.083       .  S
C473        C482   1.376   1_554  A
C473        C474   1.387       .  A
C474       S1126   1.702   1_554  A
C474       C1121   1.401       .  A
C475       C1120   1.402       .  A
C475        C476   1.401       .  A
C475        H484   1.083       .  S
C476       C1117   1.387       .  A
C476        C479   1.372       .  A
S477        C478   1.725       .  A
C478       C1125   1.386       .  A
C479       C1124   1.386       .  A
C479        H485   1.083       .  S
S480       C1120   1.703   1_556  A
S480       C1127   1.725       .  A
C481       S1126   1.725       .  A
C481        C482   1.388       .  A
C482        H486   1.083       .  S
C487        S493   1.703   1_565  A
C487        C492   1.387       .  A
C487        C488   1.400   1_565  A
C488        C489   1.400   1_545  A
C489        C498   1.369       .  A
C489        C490   1.387       .  A
C490        S496   1.713       .  A
C490        C491   1.406       .  A
C491        C492   1.407       .  A
C491        H500   1.083       .  S
C492        C495   1.376       .  A
S493        C494   1.722   1_545  A
C494        C495   1.390       .  A
C495        H501   1.083       .  S
S496        C497   1.723       .  A
C497        C498   1.384       .  A
C503        S509   1.698       .  A
C503        C508   1.387       .  A
C503        C504   1.397       .  A
C504        C505   1.397       .  A
C504        H515   1.083       .  S
C505        C514   1.366       .  A
C505        C506   1.386       .  A
C506        S512   1.718       .  A
C506        C507   1.410       .  A
C507        C508   1.411       .  A
C507        H516   1.083       .  S
C508        C511   1.381       .  A
S509        C510   1.722       .  A
C510        C511   1.393       .  A
C511        H517   1.083       .  S
S512        C513   1.727       .  A
C513        C514   1.384       .  A
C514        H518   1.084       .  S
C519        S525   1.710   1_565  A
C519        C524   1.387       .  A
C519        C520   1.404       .  A
C520        C521   1.405       .  A
C520        H531   1.083   1_565  S
C521        C530   1.375       .  A
C521        C522   1.388       .  A
C522        S528   1.709       .  A
C522        C523   1.403       .  A
C523        C524   1.403       .  A
C523        H532   1.083       .  S
C524        C527   1.372       .  A
S525        C526   1.726   1_545  A
C526        C527   1.388       .  A
C527        H533   1.083       .  S
S528        C529   1.721       .  A
C529        C530   1.386       .  A
C530        H534   1.083   1_565  S
C535        S541   1.705       .  A
C535        C540   1.387       .  A
C535        C536   1.399       .  A
C536        C537   1.400       .  A
C536        H547   1.083       .  S
C537        C546   1.367       .  A
C537        C538   1.386       .  A
C538        S544   1.716       .  A
C538        C539   1.407       .  A
C539        C540   1.408       .  A
C539        H548   1.083       .  S
C540        C543   1.376       .  A
S541        C542   1.723       .  A
C542        C543   1.391       .  A
C543        H549   1.083       .  S
S544        C545   1.726       .  A
C545        C546   1.387       .  A
C546        H550   1.083       .  S
C551        S557   1.710       .  A
C551        C556   1.386       .  A
C551        C552   1.406       .  A
C552        C553   1.406       .  A
C552        H563   1.083       .  S
C553        C562   1.377   1_554  A
C553        C554   1.387       .  A
C554        S560   1.703   1_554  A
C554        C555   1.401       .  A
C555        C556   1.401       .  A
C555        H564   1.083       .  S
C556        C559   1.372       .  A
S557        C558   1.727       .  A
C558        C559   1.387       .  A
C559        H565   1.083       .  S
S560        C561   1.725       .  A
C561        C562   1.390       .  A
C562        H566   1.083       .  S
C567        S573   1.696       .  A
C567        C572   1.387       .  A
C567        C568   1.395       .  A
C568        C569   1.396       .  A
C568        H579   1.083       .  S
C569        C578   1.364       .  A
C569        C570   1.386       .  A
C570        S576   1.716       .  A
C570        C571   1.409       .  A
C571        C572   1.410       .  A
C571        H580   1.083       .  S
C572        C575   1.381       .  A
S573        C574   1.722       .  A
C574        C575   1.391       .  A
C575        H581   1.083       .  S
S576        C577   1.727       .  A
C577        C578   1.383       .  A
C578        H582   1.084       .  S
C583        S589   1.702       .  A
C583        C588   1.388       .  A
C583        C584   1.398       .  A
C584        C585   1.399       .  A
C584        H595   1.083       .  S
C585        C594   1.367       .  A
C585        C586   1.387       .  A
C586        S592   1.711       .  A
C586        C587   1.405       .  A
C587        C588   1.406       .  A
C587        H596   1.083       .  S
C588        C591   1.374       .  A
S589        C590   1.718       .  A
C590        C591   1.386       .  A
C591        H597   1.083       .  S
S592        C593   1.726       .  A
C593        C594   1.384       .  A
C594        H598   1.083       .  S
C599        S605   1.703       .  A
C599        C604   1.387       .  A
C599        C600   1.397       .  A
C600        C601   1.399       .  A
C600        H611   1.083       .  S
C601        C610   1.363       .  A
C601        C602   1.386       .  A
C602        S608   1.715       .  A
C602        C603   1.404       .  A
C603        C604   1.406       .  A
C603        H612   1.083       .  S
C604        C607   1.373       .  A
S605        C606   1.722       .  A
C606        C607   1.389       .  A
C607        H613   1.083       .  S
S608        C609   1.723       .  A
C609        C610   1.385       .  A
C610        H614   1.083       .  S
C615        S621   1.705       .  A
C615        C620   1.388       .  A
C615        C616   1.400       .  A
C616        C617   1.401       .  A
C616        H627   1.083       .  S
C617        C626   1.371       .  A
C617        C618   1.387       .  A
C618        S624   1.712       .  A
C618        C619   1.406       .  A
C619        C620   1.407       .  A
C619        H628   1.083       .  S
C620        C623   1.377       .  A
S621        C622   1.719       .  A
C622        C623   1.388       .  A
C623        H629   1.083       .  S
S624        C625   1.727       .  A
C625        C626   1.386       .  A
C626        H630   1.083       .  S
C631        S637   1.709       .  A
C631        C636   1.386       .  A
C631        C632   1.406       .  A
C632        C633   1.405       .  A
C632        H643   1.083       .  S
C633        C642   1.377   1_554  A
C633        C634   1.387       .  A
C634        S640   1.701   1_554  A
C634        C635   1.400       .  A
C635        C636   1.400       .  A
C635        H644   1.083       .  S
C636        C639   1.370       .  A
S637        C638   1.727       .  A
C638        C639   1.386       .  A
C639        H645   1.083       .  S
S640        C641   1.724       .  A
C641        C642   1.389       .  A
C642        H646   1.083       .  S
C647        N648   1.355       .  A
C647        N652   1.360       .  A
C647        C945   1.469       .  S
N648        C649   1.356       .  A
C649        N650   1.358       .  A
C649        C929   1.473       .  S
N650        C651   1.360       .  A
C651        N652   1.364       .  A
C651        C961   1.476       .  S
C653        N654   1.350       .  A
C653        N658   1.353       .  A
C653        C913   1.463       .  S
N654        C655   1.356       .  A
C655        N656   1.364       .  A
C655        C897   1.476       .  S
N656        C657   1.368       .  A
C657        N658   1.361       .  A
C657        C964   1.476       .  S
C659        N660   1.356       .  A
C659        N664   1.359       .  A
C659        C852   1.468       .  S
N660        C661   1.358       .  A
C661        N662   1.359       .  A
C661        C865   1.476       .  S
N662        C663   1.361       .  A
C663        N664   1.363       .  A
C663        C881   1.478       .  S
C665        N666   1.354       .  A
C665        N670   1.354       .  A
C665        C820   1.470       .  S
N666        C667   1.361       .  A
C667        N668   1.367       .  A
C667        C884   1.479       .  S
N668        C669   1.365       .  A
C669        N670   1.359       .  A
C669        C833   1.480       .  S
C671        N672   1.360       .  A
C671        N676   1.358       .  A
C671        C788   1.472       .  S
N672        C673   1.363       .  A
C673        N674   1.359       .  A
C673        C801   1.474       .  S
N674        C675   1.357       .  A
C675        N676   1.358       .  A
C675        C769   1.475       .  S
C677        N678   1.351       .  A
C677        N682   1.354       .  A
C677        C753   1.467       .  S
N678        C679   1.356       .  A
C679        N680   1.364       .  A
C679        C737   1.479       .  S
N680        C681   1.368       .  A
C681        N682   1.362       .  A
C681        C804   1.476       .  S
O683       Mn709   2.092       .  S
O683       C1033   1.271   1_545  A
C684        C916   1.470       .  S
C684        O717   1.269       .  A
C684        O714   1.273       .  A
O685       Mn692   2.167       .  S
O685       Mn703   2.127       .  S
O685       Mn707   2.172       .  S
O685      Mn1032   2.123       .  S
O686       Mn720   2.106       .  S
O686        C696   1.274       .  A
O687       Mn703   2.101       .  S
O687        C710   1.273       .  A
O688       Mn707   2.109       .  S
O688        C715   1.252       .  A
O689       Mn709   1.956       .  S
O689        C705   1.218       .  S
C690        C868   1.474       .  S
C690        O693   1.253       .  A
C690        O716   1.221       .  S
O691       Mn692   2.162       .  S
O691       Mn725   2.121       .  S
O691       Mn707   2.164       .  S
Mn692       O697   2.104       .  S
Mn692      O1047   2.101       .  S
O694       Mn701   2.092       .  S
O694        C696   1.271       .  A
C695        C836   1.476       .  S
C695        O721   1.252       .  A
C695        O708   1.219       .  S
C696        C948   1.477       .  S
O697        C722   1.252       .  A
O698       Mn701   2.124       .  S
O698       Mn720   2.127       .  S
O699       Mn703   1.967       .  S
O699       Mn725   1.968       .  S
O699        C722   1.220       .  S
C700        C785   1.474       .  S
C700        O702   1.273       .  A
Mn701       O714   2.096       .  S
Mn701      O1039   1.967   1_545  S
Mn701      O1031   1.960   1_545  S
O702       Mn725   2.101       .  S
Mn703       O719   2.102       .  S
Mn703       O713   1.953       .  S
O704      Mn1032   2.092       .  S
O704        C706   1.272       .  A
C705        C772   1.473       .  S
C705        O723   1.253       .  A
C706        C817   1.474       .  S
C706        O719   1.273       .  A
Mn707      O1046   2.110       .  S
O708      Mn1024   1.961       .  S
O708       Mn711   1.964       .  S
Mn709      O1027   2.091       .  S
Mn709      O1008   2.124   1_545  S
Mn709       O727   1.966       .  S
C710        C849   1.477       .  S
C710       O1006   1.271       .  A
Mn711       O718   2.099       .  S
Mn711       O726   2.097       .  S
Mn711       O716   1.961       .  S
C712        C756   1.471       .  S
C712        O728   1.272       .  A
O713       Mn725   1.959       .  S
O713        C715   1.217       .  S
C715        C932   1.471       .  S
O716      Mn1024   1.969       .  S
O717       Mn720   2.085       .  S
C722        C900   1.473       .  S
O723      Mn1030   2.112   1_545  S
O724      Mn1015   2.101   1_545  S
O724        C729   1.252       .  A
Mn725       O728   2.091       .  S
O727        C729   1.223       .  S
C729        C740   1.477       .  S
C730        S736   1.697       .  A
C730        C735   1.387       .  A
C731        H742   1.083       .  S
C732        C741   1.368       .  A
C732        C733   1.386       .  A
C733        S739   1.716       .  A
C733        C734   1.410       .  A
C734        C735   1.410       .  A
C734        H743   1.083       .  S
C735        C738   1.382       .  A
S736        C737   1.723       .  A
C737        C738   1.392       .  A
C738        H744   1.083       .  S
S739        C740   1.728       .  A
C740        C741   1.384       .  A
C746        S752   1.701       .  A
C746        C751   1.388       .  A
C746        C747   1.396       .  A
C747        C748   1.397       .  A
C747        H758   1.083       .  S
C748        C757   1.364       .  A
C748        C749   1.386       .  A
C749        S755   1.715   1_655  A
C749        C750   1.407   1_655  A
C750        C751   1.408   1_455  A
C750        H759   1.083       .  S
C751        C754   1.376       .  A
S752        C753   1.718       .  A
C753        C754   1.389       .  A
C754        H760   1.083   1_655  S
S755        C756   1.726   1_455  A
C756        C757   1.383       .  A
C757        H761   1.083       .  S
C762        S768   1.703       .  A
C762        C767   1.387       .  A
C762        C763   1.396       .  A
C763        C764   1.398       .  A
C763        H774   1.083   1_655  S
C764        C773   1.363       .  A
C764        C765   1.386       .  A
C765        S771   1.717       .  A
C765        C766   1.406       .  A
C766        C767   1.408       .  A
C766        H775   1.083       .  S
C767        C770   1.374       .  A
S768        C769   1.721       .  A
C769        C770   1.391       .  A
C770        H776   1.083       .  S
S771        C772   1.725       .  A
C772        C773   1.384       .  A
C773        H777   1.084   1_655  S
C778        S784   1.704       .  A
C778        C779   1.400       .  A
C779        C780   1.401       .  A
C779        H790   1.083       .  S
C780        C789   1.370       .  A
C781        S787   1.714       .  A
C781        C782   1.407       .  A
C782        C783   1.407       .  A
C782        H791   1.083       .  S
C783        C786   1.376       .  A
C785        C786   1.390       .  A
C786        H792   1.083       .  S
S787        C788   1.724       .  A
C789        H793   1.083       .  S
C794        S800   1.706       .  A
C794        C795   1.404       .  A
C795        C796   1.403       .  A
C795        H806   1.083       .  S
C796        C805   1.375   1_554  A
C796        C797   1.387       .  A
C798        C799   1.401       .  A
C798        H807   1.083       .  S
C799        C802   1.373       .  A
S800        C801   1.725       .  A
C802        H808   1.083       .  S
C804        C805   1.387       .  A
C805        H809   1.083       .  S
C810        S816   1.702       .  A
C810        C815   1.387       .  A
C810        C811   1.399       .  A
C811        C812   1.399       .  A
C811       H1145   1.083       .  S
C812        C821   1.369       .  A
C812        C813   1.387       .  A
C813        S819   1.714       .  A
C813        C814   1.407       .  A
C814        C815   1.407       .  A
C814        H823   1.083       .  S
C815        C818   1.377       .  A
S816        C817   1.722       .  A
C817        C818   1.390       .  A
C818        H824   1.083       .  S
S819        C820   1.724       .  A
C820        C821   1.383       .  A
C821       H1148   1.083       .  S
H822       C1134   1.083       .  S
H825       C1144   1.083   1_545  S
C826        S832   1.699       .  A
C826        C831   1.387       .  A
C826        C827   1.397       .  A
C827        C828   1.398       .  A
C827        H838   1.083       .  S
C828        C837   1.366       .  A
C828        C829   1.386       .  A
C829        S835   1.717       .  A
C829        C830   1.410       .  A
C830        C831   1.410       .  A
C830        H839   1.083       .  S
C831        C834   1.381       .  A
S832        C833   1.723       .  A
C833        C834   1.393       .  A
C834        H840   1.083       .  S
S835        C836   1.727       .  A
C836        C837   1.385       .  A
C837        H841   1.083       .  S
C842        S848   1.709       .  A
C842        C847   1.387       .  A
C842        C843   1.404       .  A
C843        C844   1.404       .  A
C843        H854   1.083       .  S
C844        C853   1.374       .  A
C844        C845   1.388       .  A
C845        S851   1.709       .  A
C845        C846   1.403       .  A
C846        C847   1.403       .  A
C846        H855   1.083       .  S
C847        C850   1.372       .  A
S848        C849   1.725       .  A
C849        C850   1.388       .  A
C850        H856   1.083       .  S
S851        C852   1.721       .  A
C852        C853   1.385       .  A
C853        H857   1.083       .  S
C858        S864   1.703       .  A
C858        C863   1.387       .  A
C858        C859   1.398       .  A
C859        C860   1.399       .  A
C859        H870   1.083       .  S
C860        C869   1.366       .  A
C860        C861   1.386       .  A
C861        S867   1.715       .  A
C861        C862   1.406       .  A
C862        C863   1.408       .  A
C862        H871   1.083       .  S
C863        C866   1.375       .  A
S864        C865   1.722       .  A
C865        C866   1.391       .  A
C866        H872   1.083       .  S
S867        C868   1.725       .  A
C868        C869   1.385       .  A
C869        H873   1.083       .  S
C874        S880   1.709       .  A
C874        C879   1.387       .  A
C874        C875   1.406       .  A
C875        C876   1.405       .  A
C875        H886   1.083       .  S
C876        C885   1.377   1_554  A
C876        C877   1.387       .  A
C877        S883   1.702   1_554  A
C877        C878   1.401       .  A
C878        C879   1.401       .  A
C878        H887   1.083       .  S
C879        C882   1.371       .  A
S880        C881   1.726       .  A
C881        C882   1.387       .  A
C882        H888   1.083       .  S
S883        C884   1.725       .  A
C884        C885   1.390       .  A
C885        H889   1.083       .  S
C890        S896   1.695       .  A
C890        C895   1.387       .  A
C890        C891   1.395       .  A
C891        C892   1.395       .  A
C891        H902   1.083       .  S
C892        C901   1.364       .  A
C892        C893   1.386       .  A
C893        S899   1.716       .  A
C893        C894   1.409       .  A
C894        C895   1.410       .  A
C894        H903   1.083       .  S
C895        C898   1.381       .  A
S896        C897   1.722       .  A
C897        C898   1.391       .  A
C898        H904   1.083       .  S
S899        C900   1.727       .  A
C900        C901   1.383       .  A
C901        H905   1.084       .  S
C906        S912   1.702       .  A
C906        C911   1.388       .  A
C906        C907   1.397       .  A
C907        C908   1.398       .  A
C907        H918   1.083       .  S
C908        C917   1.366       .  A
C908        C909   1.387       .  A
C909        S915   1.711       .  A
C909        C910   1.405       .  A
C910        C911   1.405       .  A
C910        H919   1.083       .  S
C911        C914   1.373       .  A
S912        C913   1.718       .  A
C913        C914   1.386       .  A
C914        H920   1.083       .  S
S915        C916   1.726       .  A
C916        C917   1.383       .  A
C917        H921   1.083       .  S
C922        S928   1.702       .  A
C922        C927   1.387       .  A
C922        C923   1.397       .  A
C923        C924   1.398       .  A
C923        H934   1.083       .  S
C924        C933   1.364       .  A
C924        C925   1.386       .  A
C925        S931   1.715       .  A
C925        C926   1.405       .  A
C926        C927   1.407       .  A
C926        H935   1.083       .  S
C927        C930   1.374       .  A
S928        C929   1.722       .  A
C929        C930   1.389       .  A
C930        H936   1.083       .  S
S931        C932   1.724       .  A
C932        C933   1.385       .  A
C933        H937   1.083       .  S
C938        S944   1.704       .  A
C938        C943   1.388       .  A
C938        C939   1.400       .  A
C939        C940   1.400       .  A
C939        H950   1.083       .  S
C940        C949   1.370       .  A
C940        C941   1.387       .  A
C941        S947   1.712       .  A
C941        C942   1.407       .  A
C942        C943   1.407       .  A
C942        H951   1.083       .  S
C943        C946   1.377       .  A
S944        C945   1.719       .  A
C945        C946   1.388       .  A
C946        H952   1.083       .  S
S947        C948   1.727       .  A
C948        C949   1.386       .  A
C949        H953   1.083       .  S
C954        S960   1.708       .  A
C954        C959   1.387       .  A
C954        C955   1.405       .  A
C955        C956   1.405       .  A
C955        H966   1.083       .  S
C956        C965   1.376   1_554  A
C956        C957   1.387       .  A
C957        S963   1.701   1_554  A
C957        C958   1.400       .  A
C958        C959   1.400       .  A
C958        H967   1.083       .  S
C959        C962   1.371       .  A
S960        C961   1.727       .  A
C961        C962   1.386       .  A
C962        H968   1.083       .  S
S963        C964   1.724       .  A
C964        C965   1.389       .  A
C965        H969   1.083       .  S
C970        N971   1.356       .  A
C970        N975   1.360       .  A
C970       C1268   1.469       .  S
N971        C972   1.356       .  A
C972        N973   1.358       .  A
C972       C1252   1.473       .  S
N973        C974   1.360       .  A
C974        N975   1.364       .  A
C974       C1284   1.477       .  S
C976        N977   1.350       .  A
C976        N981   1.353       .  A
C976       C1236   1.463       .  S
N977        C978   1.356       .  A
C978        N979   1.365       .  A
C978       C1220   1.477       .  S
N979        C980   1.367       .  A
C980        N981   1.361       .  A
C980       C1287   1.477       .  S
C982        N983   1.357       .  A
C982        N987   1.358       .  A
C982       C1175   1.468       .  S
N983        C984   1.359       .  A
C984        N985   1.360       .  A
C984       C1188   1.477       .  S
N985        C986   1.361       .  A
C986        N987   1.362       .  A
C986       C1204   1.477       .  S
C988        N989   1.354       .  A
C988        N993   1.354       .  A
C988       C1143   1.470       .  S
N989        C990   1.361       .  A
C990        N991   1.367       .  A
C990       C1207   1.478       .  S
N991        C992   1.364       .  A
C992        N993   1.359       .  A
C992       C1156   1.480       .  S
C994        N995   1.360       .  A
C994        N999   1.358       .  A
C994       C1111   1.471       .  S
N995        C996   1.363       .  A
C996        N997   1.359       .  A
C996       C1124   1.473       .  S
N997        C998   1.356       .  A
C998        N999   1.357       .  A
C998       C1092   1.473       .  S
C1000      N1001   1.351       .  A
C1000      N1005   1.354       .  A
C1000      C1076   1.466       .  S
N1001      C1002   1.356       .  A
C1002      N1003   1.364       .  A
C1002      C1060   1.479       .  S
N1003      C1004   1.368       .  A
C1004      N1005   1.362       .  A
C1004      C1127   1.475       .  S
O1006     Mn1032   2.094       .  S
C1007      C1239   1.471       .  S
C1007      O1040   1.269       .  A
C1007      O1037   1.273       .  A
O1008     Mn1015   2.167       .  S
O1008     Mn1026   2.126       .  S
O1008     Mn1030   2.172       .  S
O1009     Mn1043   2.106       .  S
O1009      C1019   1.274       .  A
O1010     Mn1026   2.102       .  S
O1010      C1033   1.273       .  A
O1011     Mn1030   2.110       .  S
O1011      C1038   1.252       .  A
O1012     Mn1032   1.956       .  S
O1012      C1028   1.218       .  S
C1013      C1191   1.476       .  S
C1013      O1016   1.254       .  A
C1013      O1039   1.220       .  S
O1014     Mn1015   2.161       .  S
O1014     Mn1048   2.121       .  S
O1014     Mn1030   2.164       .  S
Mn1015     O1020   2.106       .  S
O1017     Mn1024   2.092       .  S
O1017      C1019   1.271       .  A
C1018      C1159   1.476       .  S
C1018      O1044   1.252       .  A
C1018      O1031   1.219       .  S
C1019      C1271   1.477       .  S
O1020      C1045   1.252       .  A
O1021     Mn1024   2.125       .  S
O1021     Mn1043   2.127       .  S
O1022     Mn1026   1.967       .  S
O1022     Mn1048   1.970       .  S
O1022      C1045   1.220       .  S
C1023      C1108   1.474       .  S
C1023      O1025   1.273       .  A
Mn1024     O1037   2.098       .  S
O1025     Mn1048   2.101       .  S
Mn1026     O1042   2.102       .  S
Mn1026     O1036   1.952       .  S
O1027      C1029   1.271   1_545  A
C1028      C1095   1.471       .  S
C1028      O1046   1.252       .  A
C1029      C1140   1.474       .  S
C1029      O1042   1.273       .  A
O1031     Mn1034   1.962       .  S
Mn1032     O1050   1.967       .  S
C1033      C1172   1.477       .  S
Mn1034     O1041   2.098       .  S
Mn1034     O1049   2.094       .  S
Mn1034     O1039   1.961       .  S
C1035      C1079   1.471       .  S
C1035      O1051   1.272       .  A
O1036     Mn1048   1.960       .  S
O1036      C1038   1.217       .  S
C1038      C1255   1.471       .  S
O1040     Mn1043   2.086       .  S
C1045      C1223   1.475       .  S
O1047      C1052   1.252       .  A
Mn1048     O1051   2.092       .  S
O1050      C1052   1.223       .  S
C1052      C1063   1.477       .  S
C1053      S1059   1.697       .  A
C1053      C1058   1.387       .  A
C1054      H1065   1.083       .  S
C1055      C1064   1.368       .  A
C1055      C1056   1.386       .  A
C1056      S1062   1.716       .  A
C1056      C1057   1.410       .  A
C1057      C1058   1.410       .  A
C1057      H1066   1.083       .  S
C1058      C1061   1.382       .  A
S1059      C1060   1.723       .  A
C1060      C1061   1.392       .  A
C1061      H1067   1.083       .  S
S1062      C1063   1.728       .  A
C1063      C1064   1.384       .  A
C1069      S1075   1.701       .  A
C1069      C1074   1.388       .  A
C1069      C1070   1.396       .  A
C1070      C1071   1.397       .  A
C1070      H1081   1.083       .  S
C1071      C1080   1.365       .  A
C1071      C1072   1.386       .  A
C1072      S1078   1.715   1_655  A
C1072      C1073   1.407   1_655  A
C1073      C1074   1.408   1_455  A
C1073      H1082   1.083       .  S
C1074      C1077   1.376       .  A
S1075      C1076   1.718       .  A
C1076      C1077   1.388       .  A
C1077      H1083   1.083   1_655  S
S1078      C1079   1.726   1_455  A
C1079      C1080   1.383       .  A
C1080      H1084   1.083       .  S
C1085      S1091   1.703       .  A
C1085      C1090   1.387       .  A
C1085      C1086   1.396       .  A
C1086      C1087   1.398       .  A
C1086      H1097   1.083   1_655  S
C1087      C1096   1.362       .  A
C1087      C1088   1.386       .  A
C1088      S1094   1.716       .  A
C1088      C1089   1.406       .  A
C1089      C1090   1.408       .  A
C1089      H1098   1.083       .  S
C1090      C1093   1.373       .  A
S1091      C1092   1.721       .  A
C1092      C1093   1.390       .  A
C1093      H1099   1.083       .  S
S1094      C1095   1.725       .  A
C1095      C1096   1.384       .  A
C1096      H1100   1.084   1_655  S
C1101      S1107   1.704       .  A
C1101      C1102   1.400       .  A
C1102      C1103   1.401       .  A
C1102      H1113   1.083       .  S
C1103      C1112   1.369       .  A
C1104      S1110   1.713       .  A
C1104      C1105   1.406       .  A
C1105      C1106   1.407       .  A
C1105      H1114   1.083       .  S
C1106      C1109   1.376       .  A
C1108      C1109   1.390       .  A
C1109      H1115   1.083       .  S
S1110      C1111   1.723       .  A
C1112      H1116   1.083       .  S
C1117      S1123   1.706       .  A
C1117      C1118   1.403       .  A
C1118      C1119   1.403       .  A
C1118      H1129   1.083       .  S
C1119      C1128   1.375   1_554  A
C1119      C1120   1.387       .  A
C1121      C1122   1.401       .  A
C1121      H1130   1.083       .  S
C1122      C1125   1.372       .  A
S1123      C1124   1.725       .  A
C1125      H1131   1.083       .  S
C1127      C1128   1.387       .  A
C1128      H1132   1.083       .  S
C1133      S1139   1.702   1_565  A
C1133      C1138   1.387       .  A
C1133      C1134   1.399   1_565  A
C1134      C1135   1.399   1_545  A
C1135      C1144   1.369       .  A
C1135      C1136   1.387       .  A
C1136      S1142   1.713       .  A
C1136      C1137   1.407       .  A
C1137      C1138   1.407       .  A
C1137      H1146   1.083       .  S
C1138      C1141   1.377       .  A
S1139      C1140   1.722   1_545  A
C1140      C1141   1.390       .  A
C1141      H1147   1.083       .  S
S1142      C1143   1.724       .  A
C1143      C1144   1.383       .  A
C1149      S1155   1.699       .  A
C1149      C1154   1.387       .  A
C1149      C1150   1.397       .  A
C1150      C1151   1.397       .  A
C1150      H1161   1.083       .  S
C1151      C1160   1.365       .  A
C1151      C1152   1.386       .  A
C1152      S1158   1.718       .  A
C1152      C1153   1.410       .  A
C1153      C1154   1.411       .  A
C1153      H1162   1.083       .  S
C1154      C1157   1.381       .  A
S1155      C1156   1.722       .  A
C1156      C1157   1.393       .  A
C1157      H1163   1.083       .  S
S1158      C1159   1.727       .  A
C1159      C1160   1.384       .  A
C1160      H1164   1.084       .  S
C1165      S1171   1.709   1_565  A
C1165      C1170   1.387       .  A
C1165      C1166   1.404       .  A
C1166      C1167   1.405       .  A
C1166      H1177   1.083   1_565  S
C1167      C1176   1.374       .  A
C1167      C1168   1.388       .  A
C1168      S1174   1.709       .  A
C1168      C1169   1.402       .  A
C1169      C1170   1.403       .  A
C1169      H1178   1.083       .  S
C1170      C1173   1.372       .  A
S1171      C1172   1.726   1_545  A
C1172      C1173   1.388       .  A
C1173      H1179   1.083       .  S
S1174      C1175   1.720       .  A
C1175      C1176   1.386       .  A
C1176      H1180   1.083   1_565  S
C1181      S1187   1.704       .  A
C1181      C1186   1.387       .  A
C1181      C1182   1.399       .  A
C1182      C1183   1.400       .  A
C1182      H1193   1.083       .  S
C1183      C1192   1.367       .  A
C1183      C1184   1.386       .  A
C1184      S1190   1.715       .  A
C1184      C1185   1.406       .  A
C1185      C1186   1.407       .  A
C1185      H1194   1.083       .  S
C1186      C1189   1.375       .  A
S1187      C1188   1.723       .  A
C1188      C1189   1.391       .  A
C1189      H1195   1.083       .  S
S1190      C1191   1.725       .  A
C1191      C1192   1.386       .  A
C1192      H1196   1.083       .  S
C1197      S1203   1.710       .  A
C1197      C1202   1.386       .  A
C1197      C1198   1.406       .  A
C1198      C1199   1.406       .  A
C1198      H1209   1.083       .  S
C1199      C1208   1.377   1_554  A
C1199      C1200   1.387       .  A
C1200      S1206   1.702   1_554  A
C1200      C1201   1.401       .  A
C1201      C1202   1.400       .  A
C1201      H1210   1.083       .  S
C1202      C1205   1.371       .  A
S1203      C1204   1.726       .  A
C1204      C1205   1.387       .  A
C1205      H1211   1.083       .  S
S1206      C1207   1.725       .  A
C1207      C1208   1.390       .  A
C1208      H1212   1.083       .  S
C1213      S1219   1.696       .  A
C1213      C1218   1.387       .  A
C1213      C1214   1.396       .  A
C1214      C1215   1.396       .  A
C1214      H1225   1.083       .  S
C1215      C1224   1.365       .  A
C1215      C1216   1.386       .  A
C1216      S1222   1.717       .  A
C1216      C1217   1.410       .  A
C1217      C1218   1.410       .  A
C1217      H1226   1.083       .  S
C1218      C1221   1.381       .  A
S1219      C1220   1.723       .  A
C1220      C1221   1.392       .  A
C1221      H1227   1.083       .  S
S1222      C1223   1.727       .  A
C1223      C1224   1.384       .  A
C1224      H1228   1.084       .  S
C1229      S1235   1.703       .  A
C1229      C1234   1.388       .  A
C1229      C1230   1.398       .  A
C1230      C1231   1.399       .  A
C1230      H1241   1.083       .  S
C1231      C1240   1.367       .  A
C1231      C1232   1.387       .  A
C1232      S1238   1.710       .  A
C1232      C1233   1.405       .  A
C1233      C1234   1.405       .  A
C1233      H1242   1.083       .  S
C1234      C1237   1.374       .  A
S1235      C1236   1.718       .  A
C1236      C1237   1.386       .  A
C1237      H1243   1.083       .  S
S1238      C1239   1.726       .  A
C1239      C1240   1.384       .  A
C1240      H1244   1.083       .  S
C1245      S1251   1.703       .  A
C1245      C1250   1.387       .  A
C1245      C1246   1.397       .  A
C1246      C1247   1.399       .  A
C1246      H1257   1.083       .  S
C1247      C1256   1.364       .  A
C1247      C1248   1.386       .  A
C1248      S1254   1.715       .  A
C1248      C1249   1.405       .  A
C1249      C1250   1.406       .  A
C1249      H1258   1.083       .  S
C1250      C1253   1.373       .  A
S1251      C1252   1.722       .  A
C1252      C1253   1.389       .  A
C1253      H1259   1.083       .  S
S1254      C1255   1.723       .  A
C1255      C1256   1.385       .  A
C1256      H1260   1.083       .  S
C1261      S1267   1.705       .  A
C1261      C1266   1.387       .  A
C1261      C1262   1.400       .  A
C1262      C1263   1.401       .  A
C1262      H1273   1.083       .  S
C1263      C1272   1.371       .  A
C1263      C1264   1.387       .  A
C1264      S1270   1.712       .  A
C1264      C1265   1.407       .  A
C1265      C1266   1.407       .  A
C1265      H1274   1.083       .  S
C1266      C1269   1.377       .  A
S1267      C1268   1.719       .  A
C1268      C1269   1.388       .  A
C1269      H1275   1.083       .  S
S1270      C1271   1.727       .  A
C1271      C1272   1.386       .  A
C1272      H1276   1.083       .  S
C1277      S1283   1.709       .  A
C1277      C1282   1.386       .  A
C1277      C1278   1.406       .  A
C1278      C1279   1.405       .  A
C1278      H1289   1.083       .  S
C1279      C1288   1.377   1_554  A
C1279      C1280   1.387       .  A
C1280      S1286   1.701   1_554  A
C1280      C1281   1.400       .  A
C1281      C1282   1.399       .  A
C1281      H1290   1.083       .  S
C1282      C1285   1.371       .  A
S1283      C1284   1.727       .  A
C1284      C1285   1.386       .  A
C1285      H1291   1.083       .  S
S1286      C1287   1.724       .  A
C1287      C1288   1.389       .  A
C1288      H1292   1.083       .  S
