geometry optimzed in LAMMPS
_audit_creation_date              2020-11-30 
_audit_creation_method            'lammps2cif' 
_symmetry_space_group_name_H-M    'P1' 
_symmetry_Int_Tables_number       1 
_symmetry_cell_setting            triclinic 
loop_ 
_symmetry_equiv_pos_as_xyz 
  x,y,z 
_cell_length_a                    28.30103626 
_cell_length_b                    27.54904012895696 
_cell_length_c                    27.28026530577072 
_cell_angle_alpha                 90.09966888755456 
_cell_angle_beta                  88.86602953693101 
_cell_angle_gamma                 88.85695989929881 
loop_ 
_atom_site_label 
_atom_site_type_symbol 
_atom_site_fract_x 
_atom_site_fract_y 
_atom_site_fract_z 
_atom_site_charge 
C1          C  0.86639569  0.90785491  0.84401076    -0.01800
N2          N  0.76996971  0.87860173  0.43805407    -0.05400
N3          N  0.73039384  0.88667269  0.46416163    -0.57500
N4          N  0.81849559  0.93671624  0.34347617    -0.05100
N5          N  0.82119313  0.97251836  0.31190145    -0.59600
N6          N  0.78785340  0.90442241  0.32948338    -0.04700
N7          N  0.76908567  0.91759834  0.28761539    -0.57500
N8          N  0.80179629  0.91032660  0.45056414    -0.04300
N9          N  0.78498483  0.93967231  0.48530162    -0.60000
C10         C  0.74076607  0.92436275  0.49410545     0.96800
C11         C  0.79037628  0.95996145  0.27741606     0.96600
N12         N  0.96226914  0.91037099  0.35500305    -0.05600
N13         N  0.99657743  0.92691283  0.32641884    -0.58100
N14         N  0.91097064  0.90732256  0.46517956    -0.03700
N15         N  0.92033520  0.93914385  0.49926036    -0.59300
N16         N  0.94632584  0.87580031  0.45990289    -0.05600
N17         N  0.98044578  0.88668069  0.48981356    -0.58400
N18         N  0.92713797  0.94196350  0.35834251    -0.03300
N19         N  0.93678626  0.98099376  0.33172023    -0.59400
Mn20       Mn  0.86422523  0.92478348  0.40488768     1.18400
C21         C  0.98036227  0.97088045  0.31203058     0.98900
C22         C  0.96406745  0.92657413  0.51381564     0.99500
N23         N  0.78648230  0.79264372  0.29943287    -0.05600
N24         N  0.75087146  0.78193398  0.27066299    -0.61900
N25         N  0.81451645  0.73078364  0.39544232    -0.04400
N26         N  0.79767044  0.68642952  0.39476818    -0.62600
N27         N  0.77996189  0.76322901  0.40395789    -0.05100
N28         N  0.73984236  0.74079456  0.41030226    -0.62200
N29         N  0.82159717  0.76112164  0.29248821    -0.04000
N30         N  0.81021692  0.72869040  0.25894338    -0.62900
Mn31       Mn  0.78020940  0.83531948  0.36854159     1.10700
C32         C  0.76638984  0.74252003  0.24488183     1.00100
C33         C  0.75141090  0.69346392  0.40453712     1.00200
N34         N  0.95602945  0.76793794  0.42409848    -0.05100
N35         N  0.98449251  0.75170308  0.45835033    -0.60500
N36         N  0.93009947  0.77872269  0.30114705    -0.04500
N37         N  0.92068118  0.79057155  0.25526573    -0.57200
N38         N  0.96357678  0.80678726  0.31774615    -0.05800
N39         N  0.97841183  0.83590879  0.28289297    -0.60100
N40         N  0.92725931  0.73406324  0.40989998    -0.04800
N41         N  0.93585753  0.69349622  0.43490846    -0.57300
Mn42       Mn  0.95815743  0.83883392  0.39002833     1.20200
Mn43       Mn  0.87517981  0.74960735  0.34991020     1.10100
Cl44       Cl  0.86891863  0.83673415  0.37915336    -0.85200
C45         C  0.97162662  0.70541824  0.46510138     0.97100
C46         C  0.95057223  0.82678745  0.24511248     0.96900
N47         N  0.96385092  0.39478135  0.91616453    -0.05400
N48         N  0.99477319  0.42929154  0.92010879    -0.57500
N49         N  0.94103611  0.29107754  0.97193255    -0.05100
N50         N  0.94993307  0.26163458  0.00898667    -0.59600
N51         N  0.97387505  0.28647600  0.93774197    -0.04700
N52         N  0.00616910  0.25377270  0.95055994    -0.57500
N53         N  0.93059066  0.39893457  0.95035401    -0.04300
N54         N  0.93820333  0.43610573  0.97884086    -0.60000
C55         C  0.97799565  0.45447048  0.95910617     0.96800
C56         C  0.99056406  0.23856094  0.99500984     0.96600
N57         N  0.80407603  0.27108716  0.93372386    -0.05600
N58         N  0.79143604  0.22539374  0.93820624    -0.58100
N59         N  0.81982456  0.39111737  0.95822196    -0.03700
N60         N  0.80641831  0.42508108  0.99021917    -0.59300
N61         N  0.78644222  0.38370537  0.92644726    -0.05600
N62         N  0.74955203  0.41289083  0.93623544    -0.58400
N63         N  0.83598430  0.28084962  0.96657694    -0.03300
N64         N  0.84601741  0.24265428  0.99311876    -0.59400
Mn65       Mn  0.88114469  0.34161703  0.96309805     1.18400
C66         C  0.81827513  0.20820889  0.97540586     0.98900
C67         C  0.76277709  0.43882953  0.97581745     0.99500
N68         N  0.96862361  0.26532664  0.82916090    -0.05600
N69         N  0.99407304  0.22653706  0.83900145    -0.61900
N70         N  0.93870948  0.36816863  0.77006006    -0.04400
N71         N  0.94766645  0.39765316  0.73266693    -0.62600
N72         N  0.96982840  0.37446702  0.80444176    -0.05100
N73         N  0.00046443  0.40789843  0.79144954    -0.62200
N74         N  0.93759233  0.25655663  0.79515839    -0.04000
N75         N  0.94247494  0.21097743  0.78041204    -0.62900
Mn76       Mn  0.97043708  0.33066749  0.87113320     1.10700
C77         C  0.97789960  0.19277753  0.80844341     1.00100
C78         C  0.98627468  0.42226210  0.74676066     1.00200
N79         N  0.79412884  0.37345345  0.81091213    -0.05100
N80         N  0.77166047  0.41562912  0.80796598    -0.60500
N81         N  0.82529933  0.25832272  0.78401144    -0.04500
N82         N  0.81188857  0.22796624  0.74927593    -0.57200
N83         N  0.79232966  0.26207228  0.81853750    -0.05800
N84         N  0.75613193  0.23431142  0.80786880    -0.60100
N85         N  0.82725579  0.36965459  0.77618157    -0.04800
N86         N  0.82767556  0.40910895  0.74894113    -0.57300
Mn87       Mn  0.79190956  0.32233021  0.87279273     1.20200
Mn88       Mn  0.88260644  0.31249223  0.77885979     1.10100
Cl89       Cl  0.88126930  0.32730403  0.87117690    -0.85200
C90         C  0.79297349  0.43723408  0.76925244     0.97100
C91         C  0.76892446  0.21257340  0.76492112     0.96900
N92         N  0.41072308  0.73122671  0.93611631    -0.05400
N93         N  0.44181780  0.69556948  0.94418711    -0.57500
N94         N  0.30365923  0.77687116  0.96410579    -0.05100
N95         N  0.26331613  0.79944841  0.97290576    -0.59600
N96         N  0.30029864  0.74922639  0.92453025    -0.04700
N97         N  0.25781265  0.75520632  0.90555906    -0.57500
N98         N  0.41204914  0.76347900  0.97145176    -0.04300
N99         N  0.44353824  0.75056404  0.00439843    -0.60000
C100        C  0.46207194  0.70830030  0.98686330     0.96800
C101        C  0.23588901  0.78732860  0.93574895     0.96600
N102        N  0.31215293  0.92239859  0.94761075    -0.05600
N103        N  0.28139416  0.95726539  0.96039792    -0.58100
N104        N  0.41875213  0.87754442  0.97542302    -0.03700
N105        N  0.44776005  0.88732238  0.01123329    -0.59300
N106        N  0.41949240  0.91222873  0.94222410    -0.05600
N107        N  0.44925476  0.94560424  0.95404812    -0.58400
N108        N  0.31179652  0.88746751  0.98026637    -0.03300
N109        N  0.28067860  0.89772114  0.01591421    -0.59400
Mn110      Mn  0.36236579  0.82506951  0.97449483     1.18400
C111        C  0.26168168  0.94114605  0.00281133     0.98900
C112        C  0.46640558  0.92982757  0.99684307     0.99500
N113        N  0.31138343  0.74360414  0.81235829    -0.05600
N114        N  0.28000911  0.71108867  0.79943351    -0.61900
N115        N  0.42283407  0.78308993  0.79315679    -0.04400
N116        N  0.46732978  0.79423602  0.78473572    -0.62600
N117        N  0.42051225  0.74623429  0.82413817    -0.05100
N118        N  0.46325247  0.73170967  0.83643421    -0.62200
N119        N  0.31227350  0.77951509  0.78086151    -0.04000
N120        N  0.28150552  0.77193737  0.74556058    -0.62900
Mn121      Mn  0.36060552  0.73963619  0.87440599     1.10700
C122        C  0.26128866  0.72916972  0.75784119     1.00100
C123        C  0.49167065  0.76247852  0.81239088     1.00200
N124        N  0.41928865  0.92641858  0.82776384    -0.05100
N125        N  0.44924204  0.96177400  0.81841663    -0.60500
N126        N  0.31028224  0.89433737  0.79601153    -0.04500
N127        N  0.27481564  0.90549923  0.76730825    -0.57200
N128        N  0.31163328  0.92525006  0.83283881    -0.05800
N129        N  0.27756373  0.95798102  0.83015268    -0.60100
N130        N  0.41866551  0.89589073  0.79077127    -0.04800
N131        N  0.44839381  0.90973482  0.75558399    -0.57300
Mn132      Mn  0.36581704  0.92246677  0.88759438     1.20200
Mn133      Mn  0.36557407  0.83767398  0.78783403     1.10100
Cl134      Cl  0.36370526  0.83133647  0.88095874    -0.85200
C135        C  0.46760184  0.95058370  0.77350072     0.97100
C136        C  0.25481474  0.94496548  0.78953968     0.96900
C137        C  0.35861748  0.40641753  0.87435619    -0.01800
C138        C  0.38827588  0.90589376  0.35933654    -0.01800
C139        C  0.88329238  0.41078029  0.34937356    -0.01800
N140        N  0.20436816  0.10384410  0.67279853    -0.05400
N141        N  0.22693611  0.09563677  0.71390208    -0.57500
N142        N  0.19294914  0.06703706  0.55564256    -0.05100
N143        N  0.20778702  0.03381877  0.52348532    -0.59600
N144        N  0.22539565  0.09972115  0.56186975    -0.04700
N145        N  0.26305281  0.08956261  0.53377340    -0.57500
N146        N  0.17227710  0.07062614  0.66619907    -0.04300
N147        N  0.17183944  0.03961017  0.70243349    -0.60000
C148        C  0.20577475  0.05558863  0.73186125     0.96800
C149        C  0.25136226  0.04857257  0.50981279     0.96600
N150        N  0.04892942  0.10138747  0.53428980    -0.05600
N151        N  0.01566663  0.08384408  0.50663886    -0.58100
N152        N  0.06429681  0.06286378  0.64864334    -0.03700
N153        N  0.05145019  0.02813085  0.67934050    -0.59300
N154        N  0.02989458  0.09500405  0.64393331    -0.05600
N155        N  0.99282184  0.08296044  0.67136458    -0.58400
N156        N  0.08369022  0.06909651  0.53843112    -0.03300
N157        N  0.07480542  0.02987172  0.51328301    -0.59400
Mn158      Mn  0.12869704  0.06664645  0.60203017     1.18400
C159        C  0.03241547  0.03935493  0.49378358     0.98900
C160        C  0.00694519  0.04139967  0.69354336     0.99500
N161        N  0.21469094  0.21145335  0.55659276    -0.05600
N162        N  0.22743322  0.19205383  0.51429577    -0.61900
N163        N  0.17600456  0.25232405  0.66598862    -0.04400
N164        N  0.18346323  0.28818244  0.69733712    -0.62600
N165        N  0.20902071  0.21858162  0.66995749    -0.05100
N166        N  0.23971677  0.23071491  0.70368670    -0.62200
N167        N  0.17828321  0.24189763  0.55058469    -0.04000
N168        N  0.16535634  0.24112931  0.50423607    -0.62900
Mn169      Mn  0.21525045  0.15912469  0.61642177     1.10700
C170        C  0.19563530  0.20917768  0.48277333     1.00100
C171        C  0.22314223  0.27397877  0.72097386     1.00200
N172        N  0.03170379  0.20700576  0.65263600    -0.05100
N173        N  0.01688608  0.18593562  0.69291388    -0.60500
N174        N  0.06970575  0.25156160  0.54771517    -0.04500
N175        N  0.06062151  0.28759778  0.51696585    -0.57200
N176        N  0.04020557  0.21620406  0.54090274    -0.05800
N177        N  0.01014185  0.22734545  0.50604988    -0.60100
N178        N  0.06708531  0.23618527  0.66237551    -0.04800
N179        N  0.07827905  0.23169214  0.70908341    -0.57300
Mn180      Mn  0.03662956  0.15591718  0.59175757     1.20200
Mn181      Mn  0.12261379  0.24893195  0.60701971     1.10100
Cl182      Cl  0.12585394  0.15767272  0.60421078    -0.85200
C183        C  0.04704979  0.19972638  0.72699277     0.97100
C184        C  0.02366815  0.27165576  0.49100660     0.96900
N185        N  0.05771667  0.75366679  0.19254571    -0.05400
N186        N  0.05756165  0.80094917  0.20082504    -0.57500
N187        N  0.02778107  0.63507574  0.19096798    -0.05100
N188        N  0.99969440  0.60011460  0.20551276    -0.59600
N189        N  0.06108339  0.64239962  0.22281123    -0.04700
N190        N  0.05597130  0.61202557  0.26032938    -0.57500
N191        N  0.02459730  0.74328101  0.16116445    -0.04300
N192        N  0.00200841  0.78273342  0.14724316    -0.60000
C193        C  0.02276582  0.81852942  0.17193876     0.96800
C194        C  0.01741061  0.58593249  0.24863328     0.96600
N195        N  0.06149746  0.60250749  0.04833373    -0.05600
N196        N  0.05906048  0.56007104  0.02736300    -0.58100
N197        N  0.01218279  0.71451762  0.05374952    -0.03700
N198        N  0.97745636  0.74418323  0.04004383    -0.59300
N199        N  0.04314714  0.70818512  0.01796239    -0.05600
N200        N  0.03051071  0.73352573  0.97899231    -0.58400
N201        N  0.02853787  0.60781129  0.08260280    -0.03300
N202        N  0.00256640  0.56888210  0.08580885    -0.59400
Mn203      Mn  0.02147640  0.67516231  0.12305100     1.18400
C204        C  0.02231170  0.53968322  0.05110867     0.98900
C205        C  0.98952923  0.75587216  0.99328891     0.99500
N206        N  0.17377055  0.64784855  0.21214599    -0.05600
N207        N  0.18340601  0.61684339  0.24735624    -0.61900
N208        N  0.19934910  0.75322253  0.16098767    -0.04400
N209        N  0.23595697  0.78108307  0.16953477    -0.62600
N210        N  0.16854534  0.75641233  0.19765527    -0.05100
N211        N  0.18377272  0.78654755  0.23157741    -0.62200
N212        N  0.20564521  0.64421976  0.17618292    -0.04000
N213        N  0.23754724  0.61035182  0.18629385    -0.62900
Mn214      Mn  0.11444435  0.70024196  0.20866951     1.10700
C215        C  0.22317453  0.59398894  0.23083526     1.00100
C216        C  0.22546699  0.80240891  0.21321853     1.00200
N217        N  0.14760169  0.72370693  0.01649694    -0.05100
N218        N  0.13332151  0.75942563  0.98852790    -0.60500
N219        N  0.20510861  0.62599606  0.06021543    -0.04500
N220        N  0.24238903  0.59721417  0.05060934    -0.58800
N221        N  0.17037772  0.61504820  0.03121087    -0.05800
N222        N  0.18322206  0.57900481  0.00133264    -0.60100
N223        N  0.17999335  0.73786231  0.04710044    -0.04800
N224        N  0.18827513  0.78439262  0.03964174    -0.57300
Mn225      Mn  0.10631394  0.66115061  0.02713287     1.20200
Mn226      Mn  0.19963676  0.69052821  0.11011522     1.10100
Cl227      Cl  0.11085012  0.68120303  0.11759104    -0.85200
C228        C  0.15871290  0.79718651  0.00279314     0.97100
C229        C  0.22803654  0.56777933  0.01404009     0.96900
N230        N  0.67375054  0.10510744  0.01220267    -0.05400
N231        N  0.69818683  0.09495886  0.97136123    -0.57500
N232        N  0.58130490  0.06549941  0.07165106    -0.05100
N233        N  0.55116228  0.03014627  0.07354089    -0.59600
N234        N  0.56900394  0.09811683  0.03877149    -0.04700
N235        N  0.53000489  0.08530887  0.01720251    -0.57500
N236        N  0.68557588  0.07449427  0.04692791    -0.04300
N237        N  0.71790757  0.04287286  0.03059255    -0.60000
C238        C  0.72588781  0.05638685  0.98369848     0.96800
C239        C  0.51948777  0.04316805  0.03979296     0.96600
N240        N  0.60037399  0.09428986  0.21683643    -0.05600
N241        N  0.57169171  0.08148784  0.25341167    -0.58100
N242        N  0.70575794  0.08177176  0.15954140    -0.03700
N243        N  0.74262521  0.05244463  0.16288848    -0.59300
N244        N  0.70558271  0.11455502  0.19470736    -0.05600
N245        N  0.74237577  0.10775401  0.22291932    -0.58400
N246        N  0.60069093  0.06135612  0.18212262    -0.03300
N247        N  0.57231016  0.02544458  0.19406388    -0.59400
Mn248      Mn  0.64395765  0.06979896  0.11497288     1.18400
C249        C  0.55442769  0.03844489  0.23862072     0.98900
C250        C  0.76526210  0.06897034  0.20245621     0.99500
N251        N  0.55693607  0.21312921  0.02979124    -0.05600
N252        N  0.52346491  0.22272204  0.99771584    -0.61900
N253        N  0.66973819  0.24786446  0.05693960    -0.04400
N254        N  0.71427721  0.24681132  0.07070221    -0.62600
N255        N  0.66495138  0.21821882  0.01891130    -0.05100
N256        N  0.70644051  0.20065537  0.00504690    -0.62200
N257        N  0.55871360  0.24797818  0.06246417    -0.04000
N258        N  0.52602728  0.28183645  0.05356521    -0.62900
Mn259      Mn  0.61482656  0.15918865  0.02325639     1.10700
C260        C  0.50391461  0.26535630  0.01338360     1.00100
C261        C  0.73600215  0.21626431  0.03891955     1.00200
N262        N  0.68455381  0.22637155  0.20198239    -0.05100
N263        N  0.71975203  0.23965348  0.22992395    -0.60500
N264        N  0.56583533  0.23461447  0.17490758    -0.04500
N265        N  0.52094990  0.22975330  0.16359885    -0.57200
N266        N  0.57690998  0.20384086  0.21047924    -0.05800
N267        N  0.53929348  0.17977009  0.22432987    -0.60100
N268        N  0.67477536  0.26003573  0.16963318    -0.04800
N269        N  0.70348938  0.29716200  0.17481252    -0.57300
Mn270      Mn  0.64263543  0.16079033  0.20795719     1.20200
Mn271      Mn  0.61681241  0.25099219  0.11621067     1.10100
Cl272      Cl  0.62969702  0.16024044  0.11548594    -0.85200
C273        C  0.73147553  0.28376742  0.21247835     0.97100
C274        C  0.50548199  0.19500576  0.19406705     0.96900
C275        C  0.62540651  0.58683679  0.12193247    -0.01800
C276        C  0.11695948  0.58737785  0.62177264    -0.01800
N277        N  0.26976333  0.29205192  0.39327730    -0.05400
N278        N  0.24515857  0.25541228  0.37785422    -0.57500
N279        N  0.30766654  0.38808066  0.45336918    -0.05100
N280        N  0.29692645  0.41443927  0.49292206    -0.59600
N281        N  0.28002578  0.40076727  0.41723036    -0.04700
N282        N  0.24976966  0.43546396  0.43149745    -0.57500
N283        N  0.29990191  0.27776893  0.42685385    -0.04300
N284        N  0.29592908  0.23070012  0.43455732    -0.60000
C285        C  0.26192718  0.21733672  0.40317608     0.96800
C286        C  0.26105793  0.44410860  0.47855590     0.96600
N287        N  0.45299008  0.37179123  0.42045420    -0.05600
N288        N  0.47922337  0.41041851  0.42442480    -0.58100
N289        N  0.41045843  0.26320082  0.44808874    -0.03700
N290        N  0.42068785  0.23465929  0.48586635    -0.59300
N291        N  0.44535194  0.26146065  0.41557151    -0.05600
N292        N  0.47950389  0.23163168  0.43051079    -0.58400
N293        N  0.41788408  0.37340796  0.45310604    -0.03300
N294        N  0.41946422  0.41314851  0.47973038    -0.59400
Mn295      Mn  0.35815560  0.32498435  0.44752425     1.18400
C296        C  0.45777566  0.43554224  0.46145318     0.98900
C297        C  0.46356863  0.21441530  0.47408159     0.99500
N298        N  0.29486507  0.41845762  0.30215229    -0.05600
N299        N  0.27304330  0.46082835  0.29801832    -0.61900
N300        N  0.30568887  0.30600371  0.25312792    -0.04400
N301        N  0.29455490  0.27381076  0.21929540    -0.62600
N302        N  0.27093348  0.31157969  0.28511414    -0.05100
N303        N  0.23534209  0.28352455  0.27412005    -0.62200
N304        N  0.32901511  0.41396246  0.26883367    -0.04000
N305        N  0.33133491  0.45321752  0.24141694    -0.62900
Mn306      Mn  0.27747661  0.35714386  0.35016994     1.10700
C307        C  0.29644589  0.48210927  0.26028224     1.00100
C308        C  0.25042669  0.26032286  0.23299283     1.00200
N309        N  0.44031659  0.26736323  0.30047859    -0.05100
N310        N  0.45100724  0.22053078  0.29913521    -0.60500
N311        N  0.43670215  0.38705280  0.27013425    -0.04500
N312        N  0.45305345  0.42105247  0.24054439    -0.57200
N313        N  0.46680204  0.37754793  0.30504499    -0.05800
N314        N  0.50451536  0.40508659  0.29973784    -0.60100
N315        N  0.41048565  0.27835913  0.26551029    -0.04800
N316        N  0.40034684  0.23957095  0.24009277    -0.57300
Mn317      Mn  0.45348627  0.31920675  0.35982532     1.20200
Mn318      Mn  0.37125858  0.34664338  0.26256114     1.10100
Cl319      Cl  0.36533111  0.33757101  0.35526810    -0.85200
C320        C  0.42546079  0.20370115  0.26148499     0.97100
C321        C  0.49521125  0.43220305  0.25946502     0.96900
N322        N  0.53846686  0.69339139  0.67066392    -0.05400
N323        N  0.53003741  0.68309629  0.71714113    -0.57500
N324        N  0.56200678  0.72826536  0.55407430    -0.05100
N325        N  0.55048275  0.76199998  0.52167865    -0.59600
N326        N  0.52991676  0.69464022  0.55604372    -0.04700
N327        N  0.49560083  0.70496078  0.52499718    -0.57500
N328        N  0.56968277  0.72850103  0.66725903    -0.04300
N329        N  0.58197533  0.74274919  0.71121164    -0.60000
C330        C  0.55779791  0.71354537  0.74149330     0.96800
C331        C  0.50923334  0.74689034  0.50339157     0.96600
N332        N  0.70706455  0.68568571  0.55225033    -0.05600
N333        N  0.71810751  0.66476111  0.51014518    -0.58100
N334        N  0.67800316  0.73752492  0.65926811    -0.03700
N335        N  0.68756579  0.77589429  0.68639753    -0.59300
N336        N  0.71065539  0.70361559  0.66455873    -0.05600
N337        N  0.74337085  0.71818859  0.69495706    -0.58400
N338        N  0.67051147  0.71589847  0.54658967    -0.03300
N339        N  0.65535148  0.71340867  0.50112403    -0.59400
Mn340      Mn  0.62017929  0.73006188  0.60643398     1.18400
C341        C  0.68533510  0.68144285  0.47931074     0.98900
C342        C  0.72820998  0.76309519  0.70872183     0.99500
N343        N  0.54060052  0.57979799  0.55840556    -0.05600
N344        N  0.51493139  0.57117705  0.51972416    -0.61900
N345        N  0.56412684  0.54795148  0.67411124    -0.04400
N346        N  0.55192709  0.51463159  0.70679850    -0.62600
N347        N  0.53046647  0.58115387  0.67064121    -0.05100
N348        N  0.49478644  0.57128846  0.70090084    -0.62200
N349        N  0.57529986  0.54735524  0.56145358    -0.04000
N350        N  0.57452974  0.51667830  0.52459702    -0.62900
Mn351      Mn  0.53266917  0.63775449  0.61345959     1.10700
C352        C  0.53717925  0.53223832  0.49872984     1.00100
C353        C  0.50875796  0.52998957  0.72360334     1.00200
N354        N  0.70786075  0.58897498  0.67999214    -0.05100
N355        N  0.73718777  0.58203038  0.71645447    -0.60500
N356        N  0.68574938  0.54215700  0.56943128    -0.04500
N357        N  0.69802264  0.50675423  0.53846388    -0.57200
N358        N  0.71801341  0.57568030  0.56902810    -0.05800
N359        N  0.75281016  0.56411821  0.53786560    -0.60100
N360        N  0.67467830  0.55602483  0.68123845    -0.04800
N361        N  0.67993632  0.52714677  0.71903422    -0.57300
Mn362      Mn  0.71268800  0.63934534  0.61737684     1.20200
Mn363      Mn  0.62495993  0.54688448  0.62172269     1.10100
Cl364      Cl  0.62255848  0.63838455  0.61490610    -0.85200
C365        C  0.71845350  0.54406665  0.74105659     0.97100
C366        C  0.73981762  0.52123407  0.51893038     0.96900
C367        C  0.61012299  0.08776991  0.62810722    -0.01800
C368        C  0.11344539  0.08596089  0.13955418    -0.01800
C369        C  0.22393791  0.22249707  0.20991669    -0.17800
C370        C  0.19987543  0.19032563  0.19413166     0.06300
C371        C  0.17063222  0.15262653  0.17725474     0.08100
C372        C  0.14516413  0.12136233  0.16193763    -0.18600
C373        C  0.49345697  0.18682684  0.50819939    -0.17800
C374        C  0.52038428  0.16564988  0.53607770     0.06300
C375        C  0.55277791  0.14099167  0.56849426     0.08100
C376        C  0.57963437  0.11876206  0.59566152    -0.18600
C377        C  0.47328928  0.48192826  0.47965415    -0.15700
C378        C  0.51462953  0.49984198  0.46514794    -0.30900
H379        H  0.45352557  0.49812019  0.51036708     0.13300
H380        H  0.53640695  0.48139306  0.43735265     0.13900
C381        C  0.15106904  0.55808688  0.59135918    -0.17800
C382        C  0.17811724  0.53302879  0.56643563     0.06300
C383        C  0.20886963  0.50280075  0.53684799     0.08100
C384        C  0.23381491  0.47650552  0.51095839    -0.18600
C385        C  0.60005690  0.55534011  0.15763546    -0.17800
C386        C  0.57830773  0.52825694  0.18476768     0.06300
C387        C  0.55153483  0.49536760  0.21429868     0.08100
C388        C  0.52718030  0.46676425  0.23689743    -0.18600
C389        C  0.45952810  0.17154460  0.19105475    -0.15700
C390        C  0.43963894  0.16023171  0.23412109    -0.30900
H391        H  0.43675181  0.18729682  0.16340559     0.13300
H392        H  0.45885499  0.13422064  0.25654302     0.13900
C393        C  0.24472204  0.55320876  0.25675239    -0.15700
C394        C  0.28164488  0.52802612  0.23802853    -0.30900
H395        H  0.22754465  0.54170003  0.29067144     0.13300
H396        H  0.29900145  0.53932405  0.20412570     0.13900
C397        C  0.23243226  0.17549345  0.41187850    -0.15700
C398        C  0.19144966  0.18917483  0.43319006    -0.30900
H399        H  0.25183356  0.14599260  0.42931949     0.13300
H400        H  0.16563410  0.20815416  0.41087241     0.13900
C401        C  0.85531552  0.38503476  0.31203442    -0.17800
C402        C  0.82940762  0.36333760  0.28471713     0.06300
C403        C  0.79664228  0.33713087  0.25584880     0.08100
C404        C  0.76742876  0.31381489  0.23415118    -0.18600
C405        C  0.99585594  0.54781289  0.27753138    -0.17800
C406        C  0.97173782  0.51595766  0.29509068     0.06300
C407        C  0.94033337  0.47935677  0.31201255     0.08100
C408        C  0.91346843  0.44848918  0.32687616    -0.18600
C409        C  0.91443780  0.37613782  0.37528889    -0.17800
C410        C  0.94122304  0.35100603  0.39892865     0.06300
C411        C  0.97243758  0.32368250  0.42891696     0.08100
C412        C  0.99746904  0.30056629  0.45624685    -0.18600
C413        C  0.76794047  0.49432293  0.48278088    -0.17800
C414        C  0.79321890  0.47415425  0.45228059     0.06300
C415        C  0.82385151  0.45213208  0.41627330     0.08100
C416        C  0.85042909  0.43377871  0.38574897    -0.18600
C417        C  0.35465579  0.88403547  0.32457349    -0.17800
C418        C  0.32518650  0.86712232  0.29766538     0.06300
C419        C  0.28971321  0.84698389  0.26720528     0.08100
C420        C  0.25981802  0.82835334  0.24206967    -0.18600
C421        C  0.51948523  0.01059603  0.26582017    -0.17800
C422        C  0.48972475  0.98667892  0.28705448     0.06300
C423        C  0.45444624  0.95828805  0.31124090     0.08100
C424        C  0.42445926  0.93431421  0.33213597    -0.18600
C425        C  0.36114526  0.93897692  0.39291692    -0.17800
C426        C  0.33754402  0.96582110  0.41951023     0.06300
C427        C  0.30856751  0.99646420  0.45038241     0.08100
C428        C  0.28297601  0.02126043  0.47700232    -0.18600
C429        C  0.48069737  0.77575057  0.46975303    -0.17800
C430        C  0.45823730  0.80286030  0.44316774     0.06300
C431        C  0.43297184  0.83691590  0.41316084     0.08100
C432        C  0.41230833  0.86720744  0.38846153    -0.18600
C433        C  0.32619321  0.37785341  0.84330371    -0.17800
C434        C  0.30052292  0.35474034  0.81675918     0.06300
C435        C  0.27145400  0.32739731  0.78450611     0.08100
C436        C  0.24818977  0.30362677  0.75621799    -0.18600
C437        C  0.25817006  0.53244564  0.98750311    -0.17800
C438        C  0.28162098  0.50343962  0.96280918     0.06300
C439        C  0.30821065  0.46967836  0.93234648     0.08100
C440        C  0.33065530  0.44114530  0.90611536    -0.18600
C441        C  0.46923940  0.29354564  0.98584594    -0.17800
C442        C  0.44206031  0.31780045  0.96129542     0.06300
C443        C  0.41160628  0.34715929  0.93151936     0.08100
C444        C  0.38689604  0.37307651  0.90586783    -0.18600
C445        C  0.39165349  0.43384038  0.84202006    -0.17800
C446        C  0.41932388  0.45561283  0.81565959     0.06300
C447        C  0.45182813  0.48104340  0.78451866     0.08100
C448        C  0.47869211  0.50297809  0.75744910    -0.18600
C449        C  0.19126740  0.81377966  0.92654649    -0.15700
C450        C  0.17055297  0.83403695  0.96646654    -0.30900
H451        H  0.16891598  0.79674619  0.89983790     0.13300
H452        H  0.18894151  0.86403939  0.98286648     0.13900
C453        C  0.22126593  0.97678862  0.76579473    -0.15700
C454        C  0.22597754  0.02500819  0.76948621    -0.30900
H455        H  0.19915182  0.96090309  0.73815321     0.13300
H456        H  0.25148965  0.04065097  0.79389975     0.13900
C457        C  0.22678520  0.70339299  0.72835413    -0.17800
C458        C  0.19925599  0.67927957  0.70470527     0.06300
C459        C  0.16831652  0.64899563  0.67696238     0.08100
C460        C  0.14372578  0.62206377  0.65283346    -0.18600
C461        C  0.14242784  0.04968488  0.11123767    -0.17800
C462        C  0.16801999  0.02258687  0.08683219     0.06300
C463        C  0.19951008  0.99282736  0.05752375     0.08100
C464        C  0.22727460  0.96873749  0.03247022    -0.18600
C465        C  0.54297786  0.75864584  0.81196144    -0.15700
C466        C  0.55910093  0.71646175  0.79465273    -0.30900
H467        H  0.55989746  0.79113665  0.79817454     0.13300
H468        H  0.54634104  0.68389130  0.81262472     0.13900
C469        C  0.49765403  0.67966831  0.01231634    -0.17800
C470        C  0.52698352  0.65787230  0.03631485     0.06300
C471        C  0.56115209  0.63366063  0.06607720     0.08100
C472        C  0.59015540  0.61314975  0.09160532    -0.18600
C473        C  0.49930172  0.98162197  0.74548323    -0.17800
C474        C  0.52475261  0.00751872  0.72077501     0.06300
C475        C  0.55418720  0.03722042  0.69039804     0.08100
C476        C  0.57923249  0.06119704  0.66327038    -0.18600
C477        C  0.49133535  0.96208011  0.02855136    -0.15700
C478        C  0.48592418  0.00993489  0.02093692    -0.30900
H479        H  0.51548750  0.94718996  0.05517270     0.13300
H480        H  0.46109401  0.02423219  0.99464752     0.13900
C481        C  0.01039150  0.15485020  0.79072493    -0.15700
C482        C  0.05074218  0.17383903  0.77373708    -0.30900
H483        H  0.99313468  0.12901625  0.76721534     0.13300
H484        H  0.07413805  0.19054667  0.79970894     0.13900
C485        C  0.80192603  0.17056515  0.00828943    -0.15700
C486        C  0.78090114  0.19056534  0.04791983    -0.30900
H487        H  0.78246493  0.14314373  0.98900228     0.13300
H488        H  0.80288524  0.20785155  0.07483842     0.13900
C489        C  0.64470214  0.11730259  0.65608215    -0.17800
C490        C  0.67382326  0.13874849  0.68037067     0.06300
C491        C  0.70813661  0.16309097  0.70978084     0.08100
C492        C  0.73658084  0.18445908  0.73492844    -0.18600
C493        C  0.01434171  0.20221640  0.02414122    -0.17800
C494        C  0.03451288  0.17245046  0.04921175     0.06300
C495        C  0.05939123  0.13913039  0.07937560     0.08100
C496        C  0.08246280  0.11311154  0.10594745    -0.18600
C497        C  0.77997009  0.48524165  0.75079748    -0.15700
C498        C  0.74554530  0.51199567  0.77241327    -0.30900
H499        H  0.79431279  0.49566875  0.71516279     0.13300
H500        H  0.72897845  0.50001115  0.80640643     0.13900
C501        C  0.73203086  0.47218066  0.00378274    -0.17800
C502        C  0.70767934  0.49901621  0.02979878     0.06300
C503        C  0.67977001  0.52986523  0.06176296     0.08100
C504        C  0.65583864  0.55576308  0.08914560    -0.18600
C505        C  0.08866796  0.55361183  0.65247522    -0.17800
C506        C  0.06390594  0.52428701  0.67364764     0.06300
C507        C  0.03463664  0.48893269  0.69689871     0.08100
C508        C  0.01097012  0.45854899  0.71780681    -0.18600
C509        C  0.00526575  0.49011588  0.98298013    -0.15700
C510        C  0.99777921  0.49978449  0.03039578    -0.30900
H511        H  0.03251654  0.50780984  0.96125073     0.13300
H512        H  0.97030178  0.48224443  0.05193935     0.13900
C513        C  0.79306987  0.03606088  0.23248515    -0.15700
C514        C  0.77941067  0.98975948  0.23524649    -0.30900
H515        H  0.81561303  0.05132365  0.26005585     0.13300
H516        H  0.75396846  0.97547653  0.20995995     0.13900
C517        C  0.95274433  0.85481902  0.19933395    -0.15700
C518        C  0.99657442  0.86354891  0.18294328    -0.30900
H519        H  0.92737880  0.84334327  0.17245267     0.13300
H520        H  0.01694190  0.88857463  0.20455260     0.13900
C521        C  0.65510512  0.62231291  0.14831647    -0.17800
C522        C  0.68003530  0.65112771  0.16937373     0.06300
C523        C  0.70999566  0.68447320  0.19409569     0.08100
C524        C  0.73574658  0.71187243  0.21594322    -0.18600
C525        C  0.08413465  0.06219434  0.17814233    -0.17800
C526        C  0.05912035  0.04380200  0.20958654     0.06300
C527        C  0.02967350  0.02174360  0.24619539     0.08100
C528        C  0.00571928  0.00084440  0.27680365    -0.18600
C529        C  0.71522227  0.65663011  0.40011138    -0.15700
C530        C  0.67864987  0.65842014  0.43157311    -0.30900
H531        H  0.71530946  0.63269372  0.36843674     0.13300
H532        H  0.64777596  0.63660670  0.42571756     0.13900
C533        C  0.99634026  0.67321380  0.49869866    -0.17800
C534        C  0.02221315  0.65254336  0.52748421     0.06300
C535        C  0.05534177  0.63172357  0.56091884     0.08100
C536        C  0.08387017  0.61362440  0.58877735    -0.18600
C537        C  0.63648279  0.05092661  0.59766739    -0.17800
C538        C  0.65745468  0.01927309  0.57413578     0.06300
C539        C  0.68281345  0.98216263  0.54704837     0.08100
C540        C  0.70678942  0.95281347  0.52353518    -0.18600
C541        C  0.99681562  0.96529850  0.52166408    -0.15700
C542        C  0.00007233  0.00012572  0.48709625    -0.30900
H543        H  0.02024680  0.96366280  0.55270408     0.13300
H544        H  0.97625150  0.00167867  0.45634281     0.13900
C545        C  0.75649051  0.02915537  0.95002207    -0.17800
C546        C  0.78190959  0.00312270  0.92457668     0.06300
C547        C  0.81155028  0.97055642  0.89672405     0.08100
C548        C  0.83655461  0.94221763  0.87338705    -0.18600
C549        C  0.89838690  0.93589687  0.81146034    -0.17800
C550        C  0.92347471  0.96012616  0.78476140     0.06300
C551        C  0.95246408  0.98895050  0.75330481     0.08100
C552        C  0.97721416  0.01316865  0.72630828    -0.18600
C553        C  0.83543199  0.87745560  0.81403961    -0.17800
C554        C  0.80963087  0.85212893  0.79034667     0.06300
C555        C  0.77968059  0.82182686  0.76281181     0.08100
C556        C  0.75522513  0.79539765  0.73884027    -0.18600
C557        C  0.96250630  0.78874649  0.96238806    -0.17800
C558        C  0.94090102  0.81638544  0.93579402     0.06300
C559        C  0.91590933  0.84883119  0.90415849     0.08100
C560        C  0.89423527  0.87600577  0.87710618    -0.18600
loop_ 
_geom_bond_atom_site_label_1 
_geom_bond_atom_site_label_2 
_geom_bond_distance 
_geom_bond_site_symmetry_2 
_ccdc_geom_bond_type 
C1          C548   1.480       .  S
C1          C549   1.484       .  S
C1          C553   1.481       .  S
C1          C560   1.486       .  S
N2            N3   1.330       .  A
N2            N8   1.317       .  A
N2          Mn31   2.249       .  S
N3           C10   1.360       .  A
N4            N6   1.316       .  A
N4            N5   1.313       .  A
N4          Mn20   2.159       .  S
N5           C11   1.345       .  A
N6            N7   1.318       .  A
N6          Mn31   2.196       .  S
N7           C11   1.351       .  A
N8            N9   1.320       .  A
N8          Mn20   2.185       .  S
N9           C10   1.346       .  A
C10         C540   1.456       .  S
C11         C514   1.449       .  S
N12          N18   1.310       .  A
N12          N13   1.322       .  A
N12         Mn42   2.196       .  S
N13          C21   1.348       .  A
N14          N15   1.311       .  A
N14          N16   1.317       .  A
N14         Mn20   2.180       .  S
N15          C22   1.346       .  A
N16          N17   1.315       .  A
N16         Mn42   2.177       .  S
N17          C22   1.348       .  A
N18          N19   1.328       .  A
N18         Mn20   2.225       .  S
N19          C21   1.359       .  A
Mn20        Cl44   2.524       .  S
C21         C528   1.456   1_665  S
C22         C541   1.445       .  S
N23          N24   1.327       .  A
N23          N29   1.317       .  A
N23         Mn31   2.222       .  S
N24          C32   1.354       .  A
N25          N27   1.328       .  A
N25          N26   1.321       .  A
N25         Mn43   2.171       .  S
N26          C33   1.341       .  A
N27          N28   1.312       .  A
N27         Mn31   2.210       .  S
N28          C33   1.346       .  A
N29          N30   1.327       .  A
N29         Mn43   2.221       .  S
N30          C32   1.353       .  A
Mn31        Cl44   2.534       .  S
C32         C524   1.464       .  S
C33         C529   1.463       .  S
N34          N35   1.319       .  A
N34          N40   1.314       .  A
N34         Mn42   2.166       .  S
N35          C45   1.345       .  A
N36          N37   1.325       .  A
N36          N38   1.321       .  A
N36         Mn43   2.191       .  S
N37          C46   1.347       .  A
N38          N39   1.313       .  A
N38         Mn42   2.161       .  S
N39          C46   1.336       .  A
N40          N41   1.331       .  A
N40         Mn43   2.260       .  S
N41          C45   1.362       .  A
Mn42        Cl44   2.551       .  S
Mn43        Cl44   2.530       .  S
C45         C533   1.456       .  S
C46         C517   1.470       .  S
N47          N48   1.311       .  A
N47          N53   1.315       .  A
N47         Mn76   2.153       .  S
N48          C55   1.343       .  A
N49          N51   1.308       .  A
N49          N50   1.322   1_556  A
N49         Mn65   2.189       .  S
N50          C56   1.351   1_554  A
N51          N52   1.323   1_655  A
N51         Mn76   2.192       .  S
N52          C56   1.352   1_455  A
N53          N54   1.308       .  A
N53         Mn65   2.155       .  S
N54          C55   1.347       .  A
C55         C509   1.425   1_655  S
C56         C493   1.444   1_656  S
N57          N63   1.316       .  A
N57          N58   1.321       .  A
N57         Mn87   2.210       .  S
N58          C66   1.360       .  A
N59          N60   1.323       .  A
N59          N61   1.313       .  A
N59         Mn65   2.192       .  S
N60          C67   1.351       .  A
N61          N62   1.328       .  A
N61         Mn87   2.235       .  S
N62          C67   1.357       .  A
N63          N64   1.308       .  A
N63         Mn65   2.127       .  S
N64          C66   1.339       .  A
Mn65        Cl89   2.538       .  S
C66         C485   1.449   1_556  S
C67         C501   1.457   1_556  S
N68          N69   1.308       .  A
N68          N74   1.315       .  A
N68         Mn76   2.134       .  S
N69          C77   1.341       .  A
N70          N72   1.313       .  A
N70          N71   1.329       .  A
N70         Mn88   2.239       .  S
N71          C78   1.359       .  A
N72          N73   1.322   1_655  A
N72         Mn76   2.185       .  S
N73          C78   1.349   1_455  A
N74          N75   1.322       .  A
N74         Mn88   2.220       .  S
N75          C77   1.361       .  A
Mn76        Cl89   2.527       .  S
C77         C481   1.454   1_655  S
C78         C508   1.456   1_655  S
N79          N80   1.317       .  A
N79          N85   1.322       .  A
N79         Mn87   2.201       .  S
N80          C90   1.351       .  A
N81          N82   1.329       .  A
N81          N83   1.315       .  A
N81         Mn88   2.228       .  S
N82          C91   1.357       .  A
N83          N84   1.327       .  A
N83         Mn87   2.222       .  S
N84          C91   1.354       .  A
N85          N86   1.318       .  A
N85         Mn88   2.201       .  S
N86          C90   1.349       .  A
Mn87        Cl89   2.535       .  S
Mn88        Cl89   2.550       .  S
C90         C497   1.459       .  S
C91         C492   1.471       .  S
N92          N93   1.327       .  A
N92          N98   1.311       .  A
N92        Mn121   2.232       .  S
N93         C100   1.356       .  A
N94          N96   1.326       .  A
N94          N95   1.307       .  A
N94        Mn110   2.170       .  S
N95         C101   1.335       .  A
N96          N97   1.326       .  A
N96        Mn121   2.177       .  S
N97         C101   1.342       .  A
N98          N99   1.322   1_556  A
N98        Mn110   2.182       .  S
N99         C100   1.350   1_554  A
C100        C469   1.455   1_556  S
C101        C449   1.471       .  S
N102        N108   1.313       .  A
N102        N103   1.325       .  A
N102       Mn132   2.211       .  S
N103        C111   1.354   1_556  A
N104        N105   1.319   1_556  A
N104        N106   1.318       .  A
N104       Mn110   2.175       .  S
N105        C112   1.350   1_554  A
N106        N107   1.304       .  A
N106       Mn132   2.164       .  S
N107        C112   1.343       .  A
N108        N109   1.325   1_556  A
N108       Mn110   2.218       .  S
N109        C111   1.353       .  A
Mn110      Cl134   2.557       .  S
C111        C464   1.455       .  S
C112        C477   1.443   1_556  S
N113        N114   1.326       .  A
N113        N119   1.312       .  A
N113       Mn121   2.215       .  S
N114        C122   1.353       .  A
N115        N117   1.324       .  A
N115        N116   1.318       .  A
N115       Mn133   2.196       .  S
N116        C123   1.345       .  A
N117        N118   1.316       .  A
N117       Mn121   2.170       .  S
N118        C123   1.343       .  A
N119        N120   1.330       .  A
N119       Mn133   2.233       .  S
N120        C122   1.360       .  A
Mn121      Cl134   2.536       .  S
C122        C457   1.470       .  S
C123        C465   1.454       .  S
N124        N125   1.326       .  A
N124        N130   1.313       .  A
N124       Mn132   2.208       .  S
N125        C135   1.354       .  A
N126        N127   1.317       .  A
N126        N128   1.318       .  A
N126       Mn133   2.196       .  S
N127        C136   1.353       .  A
N128        N129   1.310       .  A
N128       Mn132   2.162       .  S
N129        C136   1.344       .  A
N130        N131   1.325       .  A
N130       Mn133   2.222       .  S
N131        C135   1.354       .  A
Mn132      Cl134   2.519       .  S
Mn133      Cl134   2.546       .  S
C135        C473   1.458       .  S
C136        C453   1.443       .  S
C137        C433   1.495       .  S
C137        C440   1.494       .  S
C137        C444   1.491       .  S
C137        C445   1.490       .  S
C138        C417   1.491       .  S
C138        C424   1.489       .  S
C138        C425   1.483       .  S
C138        C432   1.492       .  S
C139        C401   1.490       .  S
C139        C408   1.484       .  S
C139        C409   1.477       .  S
C139        C416   1.480       .  S
N140        N141   1.319       .  A
N140        N146   1.317       .  A
N140       Mn169   2.188       .  S
N141        C148   1.354       .  A
N142        N144   1.312       .  A
N142        N143   1.323       .  A
N142       Mn158   2.195       .  S
N143        C149   1.352       .  A
N144        N145   1.325       .  A
N144       Mn169   2.221       .  S
N145        C149   1.354       .  A
N146        N147   1.308       .  A
N146       Mn158   2.165       .  S
N147        C148   1.344       .  A
C148        C454   1.448       .  S
C149        C428   1.452       .  S
N150        N156   1.320       .  A
N150        N151   1.317       .  A
N150       Mn180   2.187       .  S
N151        C159   1.349       .  A
N152        N153   1.324       .  A
N152        N154   1.311       .  A
N152       Mn158   2.206       .  S
N153        C160   1.354       .  A
N154        N155   1.325   1_455  A
N154       Mn180   2.211       .  S
N155        C160   1.353   1_655  A
N156        N157   1.310       .  A
N156       Mn158   2.173       .  S
N157        C159   1.343       .  A
Mn158      Cl182   2.508       .  S
C159        C542   1.444       .  S
C160        C552   1.453   1_455  S
N161        N162   1.312       .  A
N161        N167   1.328       .  A
N161       Mn169   2.180       .  S
N162        C170   1.337       .  A
N163        N165   1.311       .  A
N163        N164   1.328       .  A
N163       Mn181   2.232       .  S
N164        C171   1.357       .  A
N165        N166   1.325       .  A
N165       Mn169   2.195       .  S
N166        C171   1.353       .  A
N167        N168   1.323       .  A
N167       Mn181   2.187       .  S
N168        C170   1.342       .  A
Mn169      Cl182   2.559       .  S
C170        C398   1.468       .  S
C171        C436   1.463       .  S
N172        N173   1.309       .  A
N172        N178   1.327       .  A
N172       Mn180   2.176       .  S
N173        C183   1.334       .  A
N174        N175   1.325       .  A
N174        N176   1.311       .  A
N174       Mn181   2.226       .  S
N175        C184   1.355       .  A
N176        N177   1.321       .  A
N176       Mn180   2.169       .  S
N177        C184   1.349       .  A
N178        N179   1.324       .  A
N178       Mn181   2.192       .  S
N179        C183   1.346       .  A
Mn180      Cl182   2.556       .  S
Mn181      Cl182   2.515       .  S
C183        C482   1.467       .  S
C184        C412   1.446   1_455  S
N185        N186   1.322       .  A
N185        N191   1.317       .  A
N185       Mn214   2.208       .  S
N186        C193   1.356       .  A
N187        N189   1.313       .  A
N187        N188   1.318   1_455  A
N187       Mn203   2.167       .  S
N188        C194   1.343   1_655  A
N189        N190   1.331       .  A
N189       Mn214   2.246       .  S
N190        C194   1.362       .  A
N191        N192   1.311       .  A
N191       Mn203   2.148       .  S
N192        C193   1.345       .  A
C193        C518   1.460   1_455  S
C194        C405   1.451   1_455  S
N195        N201   1.313       .  A
N195        N196   1.304       .  A
N195       Mn225   2.147       .  S
N196        C204   1.347       .  A
N197        N198   1.326   1_455  A
N197        N199   1.308       .  A
N197       Mn203   2.199       .  S
N198        C205   1.355   1_554  A
N199        N200   1.324   1_554  A
N199       Mn225   2.205       .  S
N200        C205   1.352   1_455  A
N201        N202   1.314       .  A
N201       Mn203   2.161       .  S
N202        C204   1.347       .  A
Mn203      Cl227   2.540       .  S
C204        C510   1.433   1_455  S
C205        C557   1.455       .  S
N206        N207   1.315       .  A
N206        N212   1.322       .  A
N206       Mn214   2.196       .  S
N207        C215   1.348       .  A
N208        N210   1.315       .  A
N208        N209   1.326       .  A
N208       Mn226   2.214       .  S
N209        C216   1.353       .  A
N210        N211   1.326       .  A
N210       Mn214   2.215       .  S
N211        C216   1.354       .  A
N212        N213   1.319       .  A
N212       Mn226   2.217       .  S
N213        C215   1.355       .  A
Mn214      Cl227   2.543       .  S
C215        C393   1.458       .  S
C216        C420   1.460       .  S
N217        N218   1.309   1_554  A
N217        N223   1.316       .  A
N217       Mn225   2.119       .  S
N218        C228   1.338   1_556  A
N219        N220   1.329       .  A
N219        N221   1.313       .  A
N219       Mn226   2.238       .  S
N220        C229   1.358       .  A
N221        N222   1.324       .  A
N221       Mn225   2.198       .  S
N222        C229   1.351       .  A
N223        N224   1.323       .  A
N223       Mn226   2.232       .  S
N224        C228   1.363       .  A
Mn225      Cl227   2.534       .  S
Mn226      Cl227   2.535       .  S
C228        C450   1.459   1_554  S
C229        C437   1.462   1_554  S
N230        N231   1.326   1_554  A
N230        N236   1.313       .  A
N230       Mn259   2.230       .  S
N231        C238   1.355       .  A
N232        N234   1.318       .  A
N232        N233   1.308       .  A
N232       Mn248   2.155       .  S
N233        C239   1.342       .  A
N234        N235   1.315       .  A
N234       Mn259   2.182       .  S
N235        C239   1.351       .  A
N236        N237   1.321       .  A
N236       Mn248   2.184       .  S
N237        C238   1.349   1_554  A
C238        C545   1.448       .  S
C239        C478   1.434       .  S
N240        N246   1.310       .  A
N240        N241   1.326       .  A
N240       Mn270   2.219       .  S
N241        C249   1.355       .  A
N242        N243   1.312       .  A
N242        N244   1.316       .  A
N242       Mn248   2.180       .  S
N243        C250   1.349       .  A
N244        N245   1.318       .  A
N244       Mn270   2.193       .  S
N245        C250   1.352       .  A
N246        N247   1.324       .  A
N246       Mn248   2.198       .  S
N247        C249   1.352       .  A
Mn248      Cl272   2.516       .  S
C249        C421   1.456       .  S
C250        C513   1.453       .  S
N251        N252   1.325   1_554  A
N251        N257   1.311       .  A
N251       Mn259   2.194       .  S
N252        C260   1.353   1_556  A
N253        N255   1.330       .  A
N253        N254   1.322       .  A
N253       Mn271   2.183       .  S
N254        C261   1.339       .  A
N255        N256   1.310       .  A
N255       Mn259   2.181       .  S
N256        C261   1.335       .  A
N257        N258   1.327       .  A
N257       Mn271   2.227       .  S
N258        C260   1.355       .  A
Mn259      Cl272   2.559       .  S
C260        C441   1.460   1_554  S
C261        C486   1.467       .  S
N262        N263   1.323       .  A
N262        N268   1.311       .  A
N262       Mn270   2.186       .  S
N263        C273   1.351       .  A
N264        N265   1.322       .  A
N264        N266   1.328       .  A
N264       Mn271   2.188       .  S
N265        C274   1.343       .  A
N266        N267   1.315       .  A
N266       Mn270   2.186       .  S
N267        C274   1.338       .  A
N268        N269   1.328       .  A
N268       Mn271   2.233       .  S
N269        C273   1.357       .  A
Mn270      Cl272   2.556       .  S
Mn271      Cl272   2.519       .  S
C273        C404   1.458       .  S
C274        C389   1.467       .  S
C275        C385   1.489       .  S
C275        C472   1.487       .  S
C275        C504   1.487       .  S
C275        C521   1.495       .  S
C276        C381   1.485       .  S
C276        C460   1.502       .  S
C276        C505   1.488       .  S
C276        C536   1.490       .  S
N277        N278   1.311       .  A
N277        N283   1.319       .  A
N277       Mn306   2.158       .  S
N278        C285   1.341       .  A
N279        N281   1.314       .  A
N279        N280   1.326       .  A
N279       Mn295   2.231       .  S
N280        C286   1.355       .  A
N281        N282   1.323       .  A
N281       Mn306   2.190       .  S
N282        C286   1.351       .  A
N283        N284   1.321       .  A
N283       Mn295   2.202       .  S
N284        C285   1.356       .  A
C285        C397   1.454       .  S
C286        C384   1.454       .  S
N287        N293   1.321       .  A
N287        N288   1.315       .  A
N287       Mn317   2.196       .  S
N288        C296   1.351       .  A
N289        N290   1.330       .  A
N289        N291   1.314       .  A
N289       Mn295   2.234       .  S
N290        C297   1.358       .  A
N291        N292   1.327       .  A
N291       Mn317   2.215       .  S
N292        C297   1.353       .  A
N293        N294   1.315       .  A
N293       Mn295   2.182       .  S
N294        C296   1.346       .  A
Mn295      Cl319   2.546       .  S
C296        C377   1.450       .  S
C297        C373   1.472       .  S
N298        N299   1.316       .  A
N298        N304   1.317       .  A
N298       Mn306   2.197       .  S
N299        C307   1.354       .  A
N300        N302   1.308       .  A
N300        N301   1.326       .  A
N300       Mn318   2.205       .  S
N301        C308   1.356       .  A
N302        N303   1.321       .  A
N302       Mn306   2.185       .  S
N303        C308   1.348       .  A
N304        N305   1.318       .  A
N304       Mn318   2.191       .  S
N305        C307   1.349       .  A
Mn306      Cl319   2.540       .  S
C307        C394   1.461       .  S
C308        C369   1.446       .  S
N309        N310   1.320       .  A
N309        N315   1.318       .  A
N309       Mn317   2.199       .  S
N310        C320   1.354       .  A
N311        N312   1.322       .  A
N311        N313   1.314       .  A
N311       Mn318   2.193       .  S
N312        C321   1.350       .  A
N313        N314   1.328       .  A
N313       Mn317   2.229       .  S
N314        C321   1.357       .  A
N315        N316   1.312       .  A
N315       Mn318   2.168       .  S
N316        C320   1.346       .  A
Mn317      Cl319   2.541       .  S
Mn318      Cl319   2.544       .  S
C320        C390   1.455       .  S
C321        C388   1.456       .  S
N322        N323   1.318       .  A
N322        N328   1.325       .  A
N322       Mn351   2.196       .  S
N323        C330   1.344       .  A
N324        N326   1.311       .  A
N324        N325   1.324       .  A
N324       Mn340   2.202       .  S
N325        C331   1.352       .  A
N326        N327   1.328       .  A
N326       Mn351   2.219       .  S
N327        C331   1.357       .  A
N328        N329   1.316       .  A
N328       Mn340   2.169       .  S
N329        C330   1.342       .  A
C330        C466   1.454       .  S
C331        C429   1.460       .  S
N332        N338   1.326       .  A
N332        N333   1.314       .  A
N332       Mn362   2.196       .  S
N333        C341   1.339       .  A
N334        N335   1.325       .  A
N334        N336   1.311       .  A
N334       Mn340   2.214       .  S
N335        C342   1.353       .  A
N336        N337   1.323       .  A
N336       Mn362   2.186       .  S
N337        C342   1.351       .  A
N338        N339   1.323       .  A
N338       Mn340   2.175       .  S
N339        C341   1.341       .  A
Mn340      Cl364   2.536       .  S
C341        C530   1.465       .  S
C342        C556   1.449       .  S
N343        N344   1.317       .  A
N343        N349   1.319       .  A
N343       Mn351   2.195       .  S
N344        C352   1.353       .  A
N345        N347   1.312       .  A
N345        N346   1.327       .  A
N345       Mn363   2.215       .  S
N346        C353   1.356       .  A
N347        N348   1.324       .  A
N347       Mn351   2.208       .  S
N348        C353   1.352       .  A
N349        N350   1.313       .  A
N349       Mn363   2.184       .  S
N350        C352   1.346       .  A
Mn351      Cl364   2.545       .  S
C352        C378   1.444       .  S
C353        C448   1.458       .  S
N354        N355   1.320       .  A
N354        N360   1.319       .  A
N354       Mn362   2.207       .  S
N355        C365   1.355       .  A
N356        N357   1.326       .  A
N356        N358   1.312       .  A
N356       Mn363   2.215       .  S
N357        C366   1.355       .  A
N358        N359   1.322       .  A
N358       Mn362   2.194       .  S
N359        C366   1.349       .  A
N360        N361   1.312       .  A
N360       Mn363   2.187       .  S
N361        C365   1.346       .  A
Mn362      Cl364   2.554       .  S
Mn363      Cl364   2.528       .  S
C365        C498   1.450       .  S
C366        C413   1.449       .  S
C367        C376   1.503       .  S
C367        C476   1.488       .  S
C367        C489   1.504       .  S
C367        C537   1.490       .  S
C368        C372   1.478       .  S
C368        C461   1.486       .  S
C368        C496   1.475       .  S
C368        C525   1.488       .  S
C369        C370   1.212       .  T
C370        C371   1.422       .  S
C371        C372   1.213       .  T
C373        C374   1.227       .  T
C374        C375   1.447       .  S
C375        C376   1.228       .  T
C377        C378   1.332       .  D
C377        H379   1.088       .  S
C378        H380   1.087       .  S
C381        C382   1.217       .  T
C382        C383   1.429       .  S
C383        C384   1.217       .  T
C385        C386   1.219       .  T
C386        C387   1.432       .  S
C387        C388   1.218       .  T
C389        C390   1.333       .  D
C389        H391   1.087       .  S
C390        H392   1.087       .  S
C393        C394   1.335       .  D
C393        H395   1.087       .  S
C394        H396   1.088       .  S
C397        C398   1.334       .  D
C397        H399   1.087       .  S
C398        H400   1.087       .  S
C401        C402   1.220       .  T
C402        C403   1.434       .  S
C403        C404   1.219       .  T
C405        C406   1.216       .  T
C406        C407   1.429       .  S
C407        C408   1.217       .  T
C409        C410   1.212       .  T
C410        C411   1.421       .  S
C411        C412   1.212       .  T
C413        C414   1.213       .  T
C414        C415   1.424       .  S
C415        C416   1.214       .  T
C417        C418   1.221       .  T
C418        C419   1.435       .  S
C419        C420   1.220       .  T
C421        C422   1.218   1_545  T
C422        C423   1.432       .  S
C423        C424   1.219       .  T
C425        C426   1.216       .  T
C426        C427   1.427       .  S
C427        C428   1.215   1_565  T
C429        C430   1.220       .  T
C430        C431   1.436       .  S
C431        C432   1.221       .  T
C433        C434   1.223       .  T
C434        C435   1.439       .  S
C435        C436   1.222       .  T
C437        C438   1.222       .  T
C438        C439   1.438       .  S
C439        C440   1.222       .  T
C441        C442   1.220       .  T
C442        C443   1.435       .  S
C443        C444   1.221       .  T
C445        C446   1.220       .  T
C446        C447   1.434       .  S
C447        C448   1.219       .  T
C449        C450   1.342       .  D
C449        H451   1.086       .  S
C450        H452   1.086       .  S
C453        C454   1.342   1_565  D
C453        H455   1.086       .  S
C454        H456   1.087       .  S
C457        C458   1.226       .  T
C458        C459   1.445       .  S
C459        C460   1.227       .  T
C461        C462   1.218       .  T
C462        C463   1.430   1_545  S
C463        C464   1.217       .  T
C465        C466   1.323       .  D
C465        H467   1.088       .  S
C466        H468   1.088       .  S
C469        C470   1.217       .  T
C470        C471   1.431       .  S
C471        C472   1.218       .  T
C473        C474   1.219   1_565  T
C474        C475   1.433       .  S
C475        C476   1.219       .  T
C477        C478   1.341   1_565  D
C477        H479   1.083       .  S
C478        H480   1.083   1_554  S
C481        C482   1.340       .  D
C481        H483   1.087   1_455  S
C482        H484   1.087       .  S
C485        C486   1.336       .  D
C485        H487   1.085   1_554  S
C486        H488   1.087       .  S
C489        C490   1.228       .  T
C490        C491   1.446       .  S
C491        C492   1.227       .  T
C493        C494   1.210       .  T
C494        C495   1.420       .  S
C495        C496   1.211       .  T
C497        C498   1.337       .  D
C497        H499   1.087       .  S
C498        H500   1.086       .  S
C501        C502   1.218       .  T
C502        C503   1.432       .  S
C503        C504   1.218       .  T
C505        C506   1.219       .  T
C506        C507   1.432       .  S
C507        C508   1.218       .  T
C509        C510   1.332   1_456  D
C509        H511   1.087       .  S
C510        H512   1.087       .  S
C513        C514   1.342   1_545  D
C513        H515   1.085       .  S
C514        H516   1.086       .  S
C517        C518   1.337       .  D
C517        H519   1.087       .  S
C518        H520   1.088   1_655  S
C521        C522   1.223       .  T
C522        C523   1.438       .  S
C523        C524   1.222       .  T
C525        C526   1.219       .  T
C526        C527   1.432       .  S
C527        C528   1.218       .  T
C529        C530   1.332       .  D
C529        H531   1.086       .  S
C530        H532   1.085       .  S
C533        C534   1.219   1_655  T
C534        C535   1.433       .  S
C535        C536   1.220       .  T
C537        C538   1.219       .  T
C538        C539   1.433   1_545  S
C539        C540   1.218       .  T
C541        C542   1.350   1_665  D
C541        H543   1.086   1_655  S
C542        H544   1.087   1_455  S
C545        C546   1.213       .  T
C546        C547   1.424   1_545  S
C547        C548   1.214       .  T
C549        C550   1.217       .  T
C550        C551   1.428       .  S
C551        C552   1.216   1_565  T
C553        C554   1.215       .  T
C554        C555   1.425       .  S
C555        C556   1.214       .  T
C557        C558   1.217       .  T
C558        C559   1.430       .  S
C559        C560   1.218       .  T
