geometry optimzed in LAMMPS
_audit_creation_date              2020-11-30 
_audit_creation_method            'lammps2cif' 
_symmetry_space_group_name_H-M    'P1' 
_symmetry_Int_Tables_number       1 
_symmetry_cell_setting            triclinic 
loop_ 
_symmetry_equiv_pos_as_xyz 
  x,y,z 
_cell_length_a                    48.05577632 
_cell_length_b                    48.49536168684976 
_cell_length_c                    35.632425452006515 
_cell_angle_alpha                 89.8467045316016 
_cell_angle_beta                  90.55675933161885 
_cell_angle_gamma                 119.88423974675088 
loop_ 
_atom_site_label 
_atom_site_type_symbol 
_atom_site_fract_x 
_atom_site_fract_y 
_atom_site_fract_z 
_atom_site_charge 
C1          C  0.33299337  0.16754805  0.20203683     0.48400
H2          H  0.33371905  0.16804875  0.17086396    -0.00600
C3          C  0.33106287  0.16628607  0.27533355     0.48500
H4          H  0.33037021  0.16581548  0.30651574    -0.00600
C5          C  0.34291952  0.20006678  0.22012121    -0.14300
C6          C  0.29950027  0.14479552  0.21812089    -0.14000
C7          C  0.35527370  0.15685391  0.22034125    -0.14400
C8          C  0.34197099  0.19930047  0.25853166    -0.14400
C9          C  0.29842600  0.14420710  0.25657358    -0.14000
C10         C  0.35409124  0.15619100  0.25877974    -0.14300
C11         C  0.17340841  0.34412201  0.22222917     0.48400
H12         H  0.17278397  0.34320468  0.19104497    -0.00600
C13         C  0.17483544  0.34620032  0.29556278     0.48500
H14         H  0.17536852  0.34698673  0.32674944    -0.00600
C15         C  0.15015754  0.31223711  0.24077488    -0.14300
C16         C  0.20642087  0.35347889  0.23945185    -0.14000
C17         C  0.16450081  0.36795221  0.23874618    -0.14400
C18         C  0.15079978  0.31339991  0.27920660    -0.14400
C19         C  0.20718679  0.35442256  0.27788724    -0.14000
C20         C  0.16530178  0.36911476  0.27719452    -0.14300
C21         C  0.38627475  0.38912121  0.12074564     0.06100
C22         C  0.35993668  0.39107394  0.13471949    -0.10000
C23         C  0.33656562  0.36658503  0.15661962     0.03600
C24         C  0.33937169  0.33992760  0.16501969    -0.08600
C25         C  0.36525083  0.33736613  0.15163092     0.06100
C26         C  0.38877967  0.36191179  0.12960227    -0.08000
H27         H  0.35735964  0.41153978  0.12817203     0.11700
H28         H  0.32116841  0.32093699  0.18185657     0.09200
H29         H  0.40844223  0.35929284  0.11941262     0.09100
C30         C  0.38959392  0.37896949  0.38474754     0.06100
C31         C  0.36336896  0.38336824  0.37503056    -0.10000
C32         C  0.33842201  0.36134520  0.35173813     0.03600
C33         C  0.33958880  0.33506590  0.33773453    -0.08600
C34         C  0.36534995  0.33046859  0.34671008     0.06100
C35         C  0.39026440  0.35233792  0.37003205    -0.08000
H36         H  0.36206613  0.40370927  0.38489488     0.11700
H37         H  0.32034178  0.31809639  0.31971614     0.09200
H38         H  0.41007125  0.34846533  0.37694091     0.09100
C39         C  0.11566336  0.00230606  0.37571962     0.06100
C40         C  0.14138661  0.03192306  0.36341810    -0.10000
C41         C  0.16570663  0.03284222  0.34054513     0.03600
C42         C  0.16437141  0.00441343  0.33007925    -0.08600
C43         C  0.14423984  0.48298691  0.35096634     0.06100
C44         C  0.12072383  0.48497960  0.37210260    -0.08000
H45         H  0.14283997  0.05409425  0.37136738     0.11700
H46         H  0.18305396  0.00506255  0.31259226     0.09200
H47         H  0.10044345  0.46327143  0.38221388     0.09100
C48         C  0.12722039  0.50687224  0.10841699     0.06100
C49         C  0.12228537  0.47745095  0.12264970    -0.10000
C50         C  0.14530193  0.47664647  0.14664275     0.03600
C51         C  0.17305283  0.50492286  0.15633526    -0.08600
C52         C  0.16954689  0.02682620  0.13883171     0.06100
C53         C  0.14506456  0.02497888  0.11536180    -0.08000
H54         H  0.10119810  0.45529210  0.11483995     0.11700
H55         H  0.19075445  0.50436919  0.17499500     0.09200
H56         H  0.14713563  0.04676846  0.10448091     0.09100
C57         C  0.01069724  0.12704033  0.12687231     0.06100
C58         C  0.03885900  0.15485270  0.13840499    -0.10000
C59         C  0.03711984  0.17716258  0.16189486     0.03600
C60         C  0.00720920  0.17189900  0.17373021    -0.08600
C61         C  0.47070667  0.13708798  0.14341131     0.06100
C62         C  0.47203519  0.11468413  0.11933270    -0.08000
H63         H  0.06207693  0.15918020  0.12902063     0.11700
H64         H  0.00581463  0.18919395  0.19169713     0.09200
H65         H  0.44985906  0.09483442  0.10895733     0.09100
C66         C  0.49883377  0.12247272  0.38235960     0.06100
C67         C  0.46883007  0.11841085  0.37046933    -0.10000
C68         C  0.46753273  0.14116336  0.34717984     0.03600
C69         C  0.49589915  0.16779487  0.33556891    -0.08600
C70         C  0.03484277  0.18199602  0.35736787     0.06100
C71         C  0.03698272  0.15905898  0.37930004    -0.08000
H72         H  0.44658287  0.09771554  0.37849727     0.11700
H73         H  0.49487449  0.18528133  0.31741987     0.09200
H74         H  0.06026052  0.16365219  0.38938479     0.09100
Fe75       Fe  0.99063141  0.45397523  0.00480733     1.65800
Fe76       Fe  0.03413177  0.04799643  0.00243454     1.73200
Fe77       Fe  0.46233531  0.50005652  0.51577614     1.54400
O78         O  0.43722723  0.46351750  0.47766121    -0.78700
O79         O  0.01709942  0.06506186  0.04447335    -0.77000
O80         O  0.46806126  0.44321384  0.46040036    -0.81200
O81         O  0.47606894  0.43947625  0.03370654    -0.76100
O82         O  0.45966793  0.03582957  0.47228502    -0.77800
O83         O  0.05746816  0.03648622  0.04287034    -0.80600
C84         C  0.45440521  0.44187163  0.05109228     1.00200
C85         C  0.44237777  0.44481808  0.45771538     1.07600
O86         O  0.00183826  0.00715169  0.50185406    -1.09600
O87         O  0.06492676  0.04112867  0.46273525    -0.72000
O88         O  0.02395144  0.47177439  0.44581398    -0.75500
O89         O  0.44843510  0.46418317  0.04465640    -0.76200
C90         C  0.06145978  0.01721535  0.44438101     0.99100
O91         O  0.02384355  0.46582902  0.04722785    -0.74100
O92         O  0.02053817  0.06471414  0.45936328    -0.79300
C93         C  0.99176347  0.05447883  0.06374673     1.01700
C94         C  0.48364641  0.05619232  0.45386244     1.07600
O95         O  0.46259175  0.01773230  0.04277091    -0.75000
C96         C  0.05090790  0.49053762  0.05255108     1.05900
C97         C  0.50229156  0.09957498  0.40720207    -0.13500
C98         C  0.47840235  0.07685235  0.42755729    -0.28600
H99         H  0.03648015  0.11024326  0.41576434     0.15600
H100        H  0.45449713  0.07380967  0.42633007     0.16100
C101        C  0.01340643  0.10480164  0.10018542    -0.13500
C102        C  0.99009246  0.07438014  0.09422569    -0.28600
H103        H  0.03538957  0.11420794  0.08418853     0.15600
H104        H  0.46099981  0.05589492  0.09146762     0.16100
C105        C  0.10420200  0.50970157  0.08257862    -0.13500
C106        C  0.07298965  0.48767310  0.07944925    -0.28600
H107        H  0.11329122  0.53128159  0.06596536     0.15600
H108        H  0.09764866  0.03690579  0.09063914     0.16100
C109        C  0.08913431  0.99875640  0.40085863    -0.13500
C110        C  0.08625463  0.02272684  0.41587340    -0.28600
H111        H  0.10988828  0.54086524  0.42050246     0.15600
H112        H  0.10371011  0.04718927  0.40951800     0.16100
C113        C  0.41670373  0.40122707  0.40997749    -0.13500
C114        C  0.41645881  0.42422963  0.43088870    -0.28600
H115        H  0.43726495  0.39770371  0.41250532     0.15600
H116        H  0.39587371  0.42765382  0.42999417     0.16100
C117        C  0.40936902  0.41555786  0.09602690    -0.13500
C118        C  0.43493309  0.41684687  0.07890666    -0.28600
H119        H  0.40417709  0.43459290  0.09044208     0.15600
H120        H  0.44100490  0.39837395  0.08343644     0.16100
C121        C  0.14148243  0.44729930  0.16178152    -0.15500
C122        C  0.14312075  0.42590922  0.17719652     0.08500
C123        C  0.14889747  0.40395072  0.19724076     0.10400
C124        C  0.15560164  0.38699389  0.21551341    -0.16400
C125        C  0.15718677  0.38950173  0.29865728    -0.15500
C126        C  0.15065175  0.40758985  0.31440521     0.08500
C127        C  0.14443063  0.43072855  0.33035090     0.10400
C128        C  0.14189753  0.45291352  0.34149443    -0.16400
C129        C  0.31131380  0.36520917  0.34163128    -0.15500
C130        C  0.28755927  0.36553636  0.33069335     0.08500
C131        C  0.25923332  0.36345891  0.31528167     0.10400
C132        C  0.23522668  0.36012777  0.29978782    -0.16200
C133        C  0.30918450  0.36814564  0.17030725    -0.15500
C134        C  0.28546016  0.36690573  0.18331807     0.08500
C135        C  0.25739519  0.36331309  0.20049305     0.10400
C136        C  0.23379190  0.35916579  0.21703808    -0.16400
C137        C  0.06327741  0.21111876  0.34711754    -0.15500
C138        C  0.08570435  0.23543600  0.33572906     0.08500
C139        C  0.11027608  0.26342643  0.31915436     0.10400
C140        C  0.12967578  0.28662354  0.30234241    -0.16400
C141        C  0.12913114  0.28376879  0.21942126    -0.15500
C142        C  0.11061642  0.25940062  0.20334547     0.08500
C143        C  0.08734207  0.23043739  0.18649638     0.10400
C144        C  0.06566395  0.20581330  0.17402741    -0.16400
C145        C  0.37361213  0.14794465  0.28214163    -0.15500
C146        C  0.39150586  0.14240371  0.30041804     0.08500
C147        C  0.41490079  0.13822314  0.31983335     0.10400
C148        C  0.43743684  0.13753684  0.33402415    -0.16400
C149        C  0.44060113  0.13464062  0.15487918    -0.15500
C150        C  0.41833911  0.13697482  0.16705105     0.08500
C151        C  0.39474163  0.14275280  0.18340812     0.10400
C152        C  0.37612756  0.14890029  0.19902756    -0.16400
C153        C  0.35158606  0.22879569  0.19876901    -0.15500
C154        C  0.35805218  0.25388484  0.18427127     0.08500
C155        C  0.36399589  0.28377172  0.17025112     0.10400
C156        C  0.36659891  0.30887792  0.16045512    -0.16400
C157        C  0.36554856  0.30292182  0.33178675    -0.15500
C158        C  0.36260248  0.27905492  0.31745229     0.08500
C159        C  0.35654946  0.25081689  0.29885512     0.10400
C160        C  0.35016497  0.22701340  0.28144660    -0.16400
C161        C  0.19258972  0.06239922  0.32721547    -0.15500
C162        C  0.21652766  0.08391272  0.31318488     0.08500
C163        C  0.24514400  0.10637701  0.29471374     0.10400
C164        C  0.26948276  0.12405278  0.27789685    -0.16400
C165        C  0.19664216  0.05705230  0.14948829    -0.15500
C166        C  0.22028877  0.08037417  0.16117878     0.08500
C167        C  0.24836147  0.10528201  0.17789728     0.10400
C168        C  0.27203968  0.12445609  0.19476544    -0.16400
C169        C  0.33139632  0.16904017  0.71672203     0.48400
H170        H  0.33161014  0.16993640  0.68554335    -0.00600
C171        C  0.33084125  0.16669768  0.79004486     0.48500
H172        H  0.33061766  0.16576217  0.82122100    -0.00600
C173        C  0.34295476  0.20151264  0.73563093    -0.14300
C174        C  0.29804076  0.14710648  0.73323797    -0.14000
C175        C  0.35276362  0.15676965  0.73362254    -0.14400
C176        C  0.34275319  0.20019778  0.77404768    -0.14400
C177        C  0.29765118  0.14595991  0.77165494    -0.14000
C178        C  0.35254772  0.15555414  0.77204987    -0.14300
C179        C  0.17045503  0.34129568  0.72505048     0.48400
H180        H  0.17188183  0.34159749  0.69391502    -0.00600
C181        C  0.16680303  0.34037438  0.79828162     0.48500
H182        H  0.16529738  0.33992963  0.82941193    -0.00600
C183        C  0.14639215  0.30874767  0.74129835    -0.14300
C184        C  0.20224709  0.35028914  0.74506968    -0.14000
C185        C  0.16009635  0.36407808  0.74107744    -0.14400
C186        C  0.14435163  0.30824666  0.77959695    -0.14400
C187        C  0.20020978  0.34957389  0.78338378    -0.14000
C188        C  0.15823190  0.36371409  0.77939855    -0.14300
C189        C  0.38658474  0.39019311  0.63311971     0.06100
C190        C  0.35995732  0.39175449  0.64694787    -0.10000
C191        C  0.33680664  0.36726007  0.66910659     0.03600
C192        C  0.34009702  0.34095033  0.67789416    -0.08600
C193        C  0.36615107  0.33864084  0.66461739     0.06100
C194        C  0.38946336  0.36319985  0.64227042    -0.08000
H195        H  0.35700513  0.41195296  0.64012485     0.11700
H196        H  0.32208845  0.32198612  0.69494652     0.09200
H197        H  0.40928558  0.36082716  0.63214298     0.09100
C198        C  0.38040103  0.37983527  0.89084515     0.06100
C199        C  0.35184259  0.37920626  0.88071670    -0.10000
C200        C  0.32877997  0.35455724  0.85869183     0.03600
C201        C  0.33382104  0.33002824  0.84674518    -0.08600
C202        C  0.36195771  0.32996969  0.85703351     0.06100
C203        C  0.38540979  0.35488160  0.87901861    -0.08000
H204        H  0.34756310  0.39807702  0.88990668     0.11700
H205        H  0.31574582  0.31086820  0.82965205     0.09200
H206        H  0.40679077  0.35427004  0.88744879     0.09100
C207        C  0.10945185  0.00110150  0.87464686     0.06100
C208        C  0.13596164  0.03104405  0.86501531    -0.10000
C209        C  0.16118845  0.03269298  0.84353185     0.03600
C210        C  0.16003867  0.00471401  0.83158333    -0.08600
C211        C  0.13514257  0.47754441  0.84775019     0.06100
C212        C  0.11192071  0.47879427  0.87011835    -0.08000
H213        H  0.13759322  0.05298897  0.87435192     0.11700
H214        H  0.17956420  0.00597820  0.81520185     0.09200
H215        H  0.09264197  0.45671323  0.88081475     0.09100
C216        C  0.11817596  0.49568256  0.60500803     0.06100
C217        C  0.11713136  0.46863587  0.62095143    -0.10000
C218        C  0.14055676  0.47181606  0.64694030     0.03600
C219        C  0.16540980  0.50196100  0.65699731    -0.08600
C220        C  0.17019997  0.03157541  0.64763160     0.06100
C221        C  0.14658140  0.02998486  0.62280590    -0.08000
H222        H  0.09792686  0.44508124  0.61336202     0.11700
H223        H  0.18353712  0.50424390  0.67713167     0.09200
H224        H  0.14809866  0.05188231  0.61322851     0.09100
C225        C  0.01086658  0.12686148  0.62366730     0.06100
C226        C  0.03854926  0.15413997  0.63670197    -0.10000
C227        C  0.03595086  0.17663598  0.65857129     0.03600
C228        C  0.00574512  0.17215760  0.66749910    -0.08600
C229        C  0.46575754  0.13750169  0.65501691     0.06100
C230        C  0.46787662  0.11554120  0.63129890    -0.08000
H231        H  0.06211996  0.15801183  0.62954103     0.11700
H232        H  0.00382971  0.18978499  0.68425172     0.09200
H233        H  0.44608119  0.09584953  0.61987650     0.09100
C234        C  0.49791516  0.11215817  0.87908448     0.06100
C235        C  0.46772854  0.10854471  0.86850839    -0.10000
C236        C  0.46608948  0.13316982  0.84936878     0.03600
C237        C  0.49434590  0.16121716  0.84070111    -0.08600
C238        C  0.02619864  0.17536693  0.85351506     0.06100
C239        C  0.02781954  0.15310311  0.87712388    -0.08000
H240        H  0.44557802  0.08708500  0.87494521     0.11700
H241        H  0.49312138  0.18019626  0.82594129     0.09200
H242        H  0.05106359  0.15753591  0.88718364     0.09100
Fe243      Fe  0.99881425  0.45877746  0.49503333     1.65800
Fe244      Fe  0.03907777  0.05041786  0.50221421     1.73200
Fe245      Fe  0.45986412  0.49460076  0.99941176     1.54400
O246        O  0.44347677  0.45651864  0.96252143    -0.78700
O247        O  0.01961943  0.06712929  0.54188243    -0.77000
O248        O  0.48319627  0.44649121  0.95151348    -0.81200
O249        O  0.47355348  0.43912455  0.54264671    -0.76100
O250        O  0.46011893  0.02047108  0.96067577    -0.77800
O251        O  0.06040838  0.03943599  0.54506370    -0.80600
C252        C  0.45463842  0.44354791  0.56310617     1.00200
C253        C  0.45506319  0.44153995  0.94540084     1.07600
O254        O  0.99675814  0.00451362  0.00249103    -1.09600
O255        O  0.05806443  0.03898840  0.96047923    -0.72000
O256        O  0.02570054  0.46614384  0.96471213    -0.75500
O257        O  0.45084869  0.46751340  0.55909318    -0.76200
C258        C  0.05470646  0.01510128  0.94225514     0.99100
O259        O  0.04148402  0.48045870  0.52699395    -0.74100
O260        O  0.01378844  0.06298820  0.96196766    -0.79300
C261        C  0.99458908  0.05524835  0.56200043     1.01700
C262        C  0.48400050  0.04115359  0.94246455     1.07600
O263        O  0.46033961  0.02171641  0.55283272    -0.75000
C264        C  0.05852012  0.50762704  0.54259005     1.05900
C265        C  0.50205236  0.08802018  0.90095988    -0.13500
C266        C  0.47804146  0.06091259  0.91522962    -0.28600
H267        H  0.02779446  0.10760361  0.91841490     0.15600
H268        H  0.45325407  0.05435604  0.91003622     0.16100
C269        C  0.01475715  0.10497037  0.59809527    -0.13500
C270        C  0.99192955  0.07456679  0.59213898    -0.28600
H271        H  0.03718393  0.11466642  0.58282520     0.15600
H272        H  0.45831477  0.05715028  0.60525892     0.16100
C273        C  0.09250653  0.49075908  0.57752844    -0.13500
C274        C  0.08409231  0.51280692  0.56992508    -0.28600
H275        H  0.07922984  0.46759745  0.56406195     0.15600
H276        H  0.09848407  0.04004618  0.59576159     0.16100
C277        C  0.08250072  0.99700016  0.89908005    -0.13500
C278        C  0.07892154  0.02078401  0.91321340    -0.28600
H279        H  0.09853119  0.53539068  0.91423985     0.15600
H280        H  0.09563540  0.04529590  0.90612585     0.16100
C281        C  0.40307947  0.40614190  0.91550578    -0.13500
C282        C  0.43463045  0.41639067  0.91831355    -0.28600
H283        H  0.39312377  0.41803475  0.93185645     0.15600
H284        H  0.44541167  0.40543303  0.90180978     0.16100
C285        C  0.40960883  0.41686523  0.60836964    -0.13500
C286        C  0.43558836  0.41874074  0.59153711    -0.28600
H287        H  0.40393428  0.43550673  0.60236854     0.15600
H288        H  0.44181198  0.40037892  0.59606204     0.16100
C289        C  0.13968465  0.44434125  0.66345183    -0.15500
C290        C  0.14181633  0.42342297  0.67906228     0.08500
C291        C  0.14695784  0.40124935  0.69906797     0.10400
C292        C  0.15267921  0.38380596  0.71749796    -0.16400
C293        C  0.14899717  0.38348053  0.80012830    -0.15500
C294        C  0.14210656  0.40167798  0.81474077     0.08500
C295        C  0.13599505  0.42530573  0.82900813     0.10400
C296        C  0.13355481  0.44778781  0.83889362    -0.16400
C297        C  0.29998469  0.35465946  0.84812762    -0.15500
C298        C  0.27621160  0.35496444  0.83805540     0.08500
C299        C  0.24886967  0.35478487  0.82346251     0.10400
C300        C  0.22613653  0.35341501  0.80737653    -0.16200
C301        C  0.30903128  0.36831931  0.68248671    -0.15500
C302        C  0.28478943  0.36645808  0.69480571     0.08500
C303        C  0.25583061  0.36200332  0.71048024     0.10400
C304        C  0.23119147  0.35702957  0.72520108    -0.16400
C305        C  0.05493835  0.20376834  0.84230733    -0.15500
C306        C  0.07759603  0.22794309  0.83105212     0.08500
C307        C  0.10247696  0.25635509  0.81568280     0.10400
C308        C  0.12231613  0.28031556  0.80050580    -0.16400
C309        C  0.12706261  0.28134733  0.71810236    -0.15500
C310        C  0.10914878  0.25750517  0.70114005     0.08500
C311        C  0.08592904  0.22903029  0.68407115     0.10400
C312        C  0.06411655  0.20479339  0.67152828    -0.16400
C313        C  0.37193920  0.14582678  0.79377832    -0.15500
C314        C  0.38991432  0.13883803  0.80972829     0.08500
C315        C  0.41336210  0.13276116  0.82613795     0.10400
C316        C  0.43583876  0.13055938  0.83810170    -0.16400
C317        C  0.43531685  0.13431232  0.66510453    -0.15500
C318        C  0.41270815  0.13590475  0.67690943     0.08500
C319        C  0.38948062  0.14140633  0.69397051     0.10400
C320        C  0.37186915  0.14792486  0.71085701    -0.16400
C321        C  0.35207143  0.23064253  0.71482586    -0.15500
C322        C  0.35884024  0.25569744  0.69993871     0.08500
C323        C  0.36510279  0.28542866  0.68487437     0.10400
C324        C  0.36783772  0.31039960  0.67413415    -0.16400
C325        C  0.36573827  0.30369758  0.84506253    -0.15500
C326        C  0.36439201  0.28002098  0.83241836     0.08500
C327        C  0.35883846  0.25163295  0.81486458     0.10400
C328        C  0.35205781  0.22772909  0.79756902    -0.16400
C329        C  0.18904180  0.06267705  0.83383767    -0.15500
C330        C  0.21395094  0.08493919  0.82310670     0.08500
C331        C  0.24372257  0.10817649  0.80799401     0.10400
C332        C  0.26877264  0.12615649  0.79288579    -0.16400
C333        C  0.19595719  0.06161338  0.66105620    -0.15500
C334        C  0.21885355  0.08459203  0.67460613     0.08500
C335        C  0.24645932  0.10892578  0.69275406     0.10400
C336        C  0.27011159  0.12753102  0.71011326    -0.16400
C337        C  0.34322799  0.66881995  0.20831801     0.48400
H338        H  0.34419794  0.66959093  0.17714993    -0.00600
C339        C  0.34074049  0.66695194  0.28161216     0.48500
H340        H  0.33967856  0.66618760  0.31278497    -0.00600
C341        C  0.35318474  0.70101907  0.22676543    -0.14300
C342        C  0.30972195  0.64634187  0.22397131    -0.14000
C343        C  0.36491095  0.65773182  0.22675360    -0.14400
C344        C  0.35182124  0.69994850  0.26510846    -0.14400
C345        C  0.30843233  0.64552401  0.26233793    -0.14000
C346        C  0.36343852  0.65662323  0.26508817    -0.14300
C347        C  0.16592359  0.83325739  0.21643362     0.48400
H348        H  0.16733735  0.83364893  0.18529436    -0.00600
C349        C  0.16296605  0.83258566  0.28973304     0.48500
H350        H  0.16165035  0.83220389  0.32087030    -0.00600
C351        C  0.14195276  0.80064134  0.23255570    -0.14300
C352        C  0.19781500  0.84238450  0.23641090    -0.14000
C353        C  0.15583884  0.85621432  0.23259726    -0.14400
C354        C  0.14041255  0.80032561  0.27092055    -0.14400
C355        C  0.19641053  0.84196929  0.27475442    -0.14000
C356        C  0.15442498  0.85608229  0.27097247    -0.14300
C357        C  0.37884625  0.88129147  0.12382449     0.06100
C358        C  0.35252614  0.88238058  0.13873320    -0.10000
C359        C  0.33186865  0.85893272  0.16358219     0.03600
C360        C  0.33720176  0.83408302  0.17368259    -0.08600
C361        C  0.36306169  0.83240390  0.15859446     0.06100
C362        C  0.38393498  0.85593680  0.13373657    -0.08000
H363        H  0.34792334  0.90134894  0.13070197     0.11700
H364        H  0.32083595  0.81569317  0.19262209     0.09200
H365        H  0.40324785  0.85376019  0.12138776     0.09100
C366        C  0.38078033  0.87417074  0.38372474     0.06100
C367        C  0.35406784  0.87777787  0.37411354    -0.10000
C368        C  0.32906131  0.85492318  0.35149545     0.03600
C369        C  0.33069757  0.82858471  0.33848999    -0.08600
C370        C  0.35685822  0.82480317  0.34810886     0.06100
C371        C  0.38164603  0.84736064  0.37068189    -0.08000
H372        H  0.35209930  0.89760982  0.38472647     0.11700
H373        H  0.31151757  0.81092441  0.32098054     0.09200
H374        H  0.40174561  0.84405042  0.37805303     0.09100
C375        C  0.12424077  0.51505533  0.38097451     0.06100
C376        C  0.15173087  0.54271176  0.36860354    -0.10000
C377        C  0.17488888  0.54049421  0.34732097     0.03600
C378        C  0.17106726  0.51076335  0.33863476    -0.08600
C379        C  0.13928544  0.97515927  0.34199799     0.06100
C380        C  0.11510049  0.97415462  0.36454416    -0.08000
H381        H  0.15504161  0.56594436  0.37540477     0.11700
H382        H  0.18916549  0.50923995  0.32221589     0.09200
H383        H  0.09583745  0.95125208  0.37365941     0.09100
C384        C  0.11864222  0.99506658  0.10547612     0.06100
C385        C  0.11763702  0.96730503  0.11896831    -0.10000
C386        C  0.14208089  0.96929924  0.14250664     0.03600
C387        C  0.16788505  0.99899518  0.15240977    -0.08600
C388        C  0.17821658  0.53391330  0.14214073     0.06100
C389        C  0.15556261  0.53491497  0.11817819    -0.08000
H390        H  0.09768911  0.94415328  0.11143732     0.11700
H391        H  0.18675498  0.00044882  0.17071340     0.09200
H392        H  0.15986252  0.55764397  0.10743992     0.09100
C393        C  0.99483311  0.61716108  0.12130018     0.06100
C394        C  0.02537240  0.64312096  0.13110840    -0.10000
C395        C  0.02771093  0.66823565  0.15330665     0.03600
C396        C  0.99979021  0.66744496  0.16569183    -0.08600
C397        C  0.48281966  0.64237383  0.15388055     0.06100
C398        C  0.48378459  0.61966103  0.13052806    -0.08000
H399        H  0.04716479  0.64438459  0.12114353     0.11700
H400        H  0.00153727  0.68678880  0.18269826     0.09200
H401        H  0.46134847  0.60043327  0.11995336     0.09100
C402        C  0.50602613  0.62130900  0.38808683     0.06100
C403        C  0.47625615  0.61678164  0.37497946    -0.10000
C404        C  0.47516368  0.63998003  0.35258409     0.03600
C405        C  0.50346465  0.66752116  0.34289201    -0.08600
C406        C  0.02472659  0.66428989  0.33974471     0.06100
C407        C  0.02669403  0.64037863  0.35955881    -0.08000
H408        H  0.45401410  0.59547965  0.38153275     0.11700
H409        H  0.50249674  0.68537146  0.32538002     0.09200
H410        H  0.05008264  0.64343313  0.36651167     0.09100
Fe411      Fe  0.00272049  0.96734434  0.99485162     1.65800
Fe412      Fe  0.03675681  0.53480553  0.00077381     1.73200
Fe413      Fe  0.44915758  0.99589523  0.50406376     1.54400
O414        O  0.43429992  0.96996657  0.45560964    -0.78700
O415        O  0.03069352  0.55628676  0.04749229    -0.77000
O416        O  0.45855205  0.94088129  0.45786047    -0.81200
O417        O  0.47552966  0.94020913  0.05219801    -0.76100
O418        O  0.46712543  0.53163944  0.47382965    -0.77800
O419        O  0.05951458  0.51673799  0.03543066    -0.80600
C420        C  0.44790414  0.93605883  0.05875096     1.00200
C421        C  0.43756289  0.94707768  0.44422509     1.07600
O422        O  0.99477712  0.49689324  0.49568742    -1.09600
O423        O  0.05603261  0.52392095  0.45355413    -0.72000
O424        O  0.03838405  0.98927383  0.45044573    -0.75500
O425        O  0.43530601  0.94912590  0.03932353    -0.76200
C426        C  0.04874576  0.49768711  0.43741606     0.99100
O427        O  0.04244291  0.98562895  0.03098942    -0.74100
O428        O  0.01267866  0.54992453  0.44535270    -0.79300
C429        C  0.00681140  0.55826783  0.05872492     1.01700
C430        C  0.49080426  0.55410440  0.45722972     1.07600
O431        O  0.47035924  0.53122319  0.03697478    -0.75000
C432        C  0.05988427  0.01186184  0.04819073     1.05900
C433        C  0.50914723  0.59813995  0.41240347    -0.13500
C434        C  0.48474645  0.57381631  0.43048980    -0.28600
H435        H  0.02595925  0.59126489  0.39495524     0.15600
H436        H  0.46032162  0.56905381  0.42740545     0.16100
C437        C  0.98996496  0.59037113  0.09627864    -0.13500
C438        C  0.01292417  0.58364394  0.08636682    -0.28600
H439        H  0.96586532  0.57538723  0.08508589     0.15600
H440        H  0.46725538  0.56494216  0.09039940     0.16100
C441        C  0.09232379  0.99172184  0.08012172    -0.13500
C442        C  0.08478814  0.01474955  0.07514170    -0.28600
H443        H  0.07836313  0.96924020  0.06540993     0.15600
H444        H  0.06316788  0.46624256  0.09631410     0.16100
C445        C  0.10099770  0.51873877  0.40498475    -0.13500
C446        C  0.07012459  0.49599382  0.40894884    -0.28600
H447        H  0.07142658  0.97464939  0.40871501     0.15600
H448        H  0.06071389  0.47404583  0.39304129     0.16100
C449        C  0.40732253  0.89654078  0.40900916    -0.13500
C450        C  0.41463684  0.92672879  0.41486913    -0.28600
H451        H  0.42106838  0.88757066  0.42384256     0.15600
H452        H  0.40150620  0.93627459  0.39994786     0.16100
C453        C  0.39892107  0.90569674  0.09595719    -0.13500
C454        C  0.42957142  0.91410221  0.08925897    -0.28600
H455        H  0.38795233  0.91722949  0.08043366     0.15600
H456        H  0.44131094  0.90377072  0.10553709     0.16100
C457        C  0.14087265  0.94107692  0.15723642    -0.15500
C458        C  0.14209298  0.91924547  0.17178853     0.08500
C459        C  0.14561874  0.89571583  0.19106710     0.10400
C460        C  0.14985309  0.87709037  0.20917520    -0.16400
C461        C  0.14776315  0.87774753  0.29183355    -0.15500
C462        C  0.14353033  0.89786110  0.30628822     0.08500
C463        C  0.14013954  0.92326150  0.32054559     0.10400
C464        C  0.13876804  0.94622882  0.33105890    -0.16400
C465        C  0.30127131  0.85768328  0.34146786    -0.15500
C466        C  0.27688859  0.85675754  0.33051449     0.08500
C467        C  0.24792701  0.85302997  0.31484089     0.10400
C468        C  0.22374363  0.84845256  0.29859509    -0.16200
C469        C  0.30419856  0.85942703  0.17732621    -0.15500
C470        C  0.28010550  0.85815138  0.18858634     0.08500
C471        C  0.25122074  0.85445799  0.20255787     0.10400
C472        C  0.22652032  0.84960139  0.21645800    -0.16400
C473        C  0.05328803  0.69291654  0.32905535    -0.15500
C474        C  0.07565110  0.71780440  0.31914300     0.08500
C475        C  0.09997510  0.74731784  0.30571746     0.10400
C476        C  0.11923264  0.77211200  0.29170961    -0.16400
C477        C  0.12243578  0.77282766  0.20930571    -0.15500
C478        C  0.10442694  0.74866580  0.19244339     0.08500
C479        C  0.08091299  0.71978166  0.17550184     0.10400
C480        C  0.05828734  0.69548051  0.16363975    -0.16400
C481        C  0.38199532  0.64725937  0.28823492    -0.15500
C482        C  0.39933406  0.64086818  0.30612907     0.08500
C483        C  0.42255580  0.63633812  0.32495946     0.10400
C484        C  0.44521275  0.63593640  0.33889511    -0.16400
C485        C  0.45279926  0.64008873  0.16390382    -0.15500
C486        C  0.42967534  0.64116723  0.17471205     0.08500
C487        C  0.40499238  0.64519519  0.19010839     0.10400
C488        C  0.38579825  0.65027753  0.20556025    -0.16400
C489        C  0.36035647  0.72918700  0.20559843    -0.15500
C490        C  0.36468582  0.75344196  0.19104817     0.08500
C491        C  0.36731926  0.78192502  0.17727093     0.10400
C492        C  0.36699377  0.80562115  0.16775027    -0.16400
C493        C  0.35834672  0.79775546  0.33449019    -0.15500
C494        C  0.35901820  0.77516060  0.32176202     0.08500
C495        C  0.35855346  0.74882063  0.30470823     0.10400
C496        C  0.35656951  0.72645005  0.28788965    -0.16400
C497        C  0.20278689  0.56839019  0.33364118    -0.15500
C498        C  0.22692428  0.58890956  0.31943876     0.08500
C499        C  0.25533425  0.61000685  0.30053690     0.10400
C500        C  0.27950348  0.62647211  0.28332419    -0.16400
C501        C  0.20670629  0.56260160  0.15312280    -0.15500
C502        C  0.23085521  0.58491052  0.16523114     0.08500
C503        C  0.25894317  0.60868350  0.18271594     0.10400
C504        C  0.28244841  0.62694049  0.20027996    -0.16400
C505        C  0.33102219  0.66690571  0.70660142     0.48400
H506        H  0.33164731  0.66702477  0.67541536    -0.00600
C507        C  0.32982796  0.66668808  0.77994409     0.48500
H508        H  0.32925998  0.66663590  0.81112618    -0.00600
C509        C  0.34130458  0.69956508  0.72398758    -0.14300
C510        C  0.29771130  0.64463396  0.72289436    -0.14000
C511        C  0.35320069  0.65645813  0.72529954    -0.14400
C512        C  0.34076825  0.69947510  0.76240230    -0.14400
C513        C  0.29712051  0.64461972  0.76131658    -0.14000
C514        C  0.35257854  0.65616962  0.76372034    -0.14300
C515        C  0.16203488  0.83314297  0.71574548     0.48400
H516        H  0.16241575  0.83211140  0.68459211    -0.00600
C517        C  0.16117270  0.83565159  0.78900306     0.48500
H518        H  0.16091907  0.83670137  0.82015773    -0.00600
C519        C  0.13865701  0.80146233  0.73417955    -0.14300
C520        C  0.19439589  0.84288679  0.73447806    -0.14000
C521        C  0.15257880  0.85679405  0.73090454    -0.14400
C522        C  0.13815344  0.80275071  0.77251815    -0.14400
C523        C  0.19391849  0.84418309  0.77277963    -0.14000
C524        C  0.15206097  0.85816173  0.76920648    -0.14300
C525        C  0.37274319  0.87997403  0.61327891     0.06100
C526        C  0.34591474  0.88054888  0.62781461    -0.10000
C527        C  0.32489111  0.85668518  0.65211845     0.03600
C528        C  0.33034487  0.83190445  0.66201154    -0.08600
C529        C  0.35660587  0.83062662  0.64753130     0.06100
C530        C  0.37787101  0.85457596  0.62319610    -0.08000
H531        H  0.34135253  0.89961295  0.62020293     0.11700
H532        H  0.31390130  0.81336097  0.68074994     0.09200
H533        H  0.39765462  0.85279518  0.61165279     0.09100
C534        C  0.37759723  0.88025238  0.87691111     0.06100
C535        C  0.34991617  0.88088535  0.86571680    -0.10000
C536        C  0.32637227  0.85626954  0.84412409     0.03600
C537        C  0.33042340  0.83100587  0.83270630    -0.08600
C538        C  0.35812888  0.83018391  0.84304629     0.06100
C539        C  0.38184170  0.85477320  0.86514682    -0.08000
H540        H  0.34630449  0.90025888  0.87454901     0.11700
H541        H  0.31196606  0.81193886  0.81586290     0.09200
H542        H  0.40331162  0.85401061  0.87266668     0.09100
C543        C  0.11449516  0.50842267  0.87908888     0.06100
C544        C  0.14087601  0.53644643  0.86534456    -0.10000
C545        C  0.16396812  0.53498926  0.84307035     0.03600
C546        C  0.16094668  0.50560265  0.83424559    -0.08600
C547        C  0.13414041  0.97511739  0.84096040     0.06100
C548        C  0.10898964  0.97331941  0.86225340    -0.08000
H549        H  0.14363310  0.55944069  0.87226256     0.11700
H550        H  0.17897336  0.50458396  0.81712910     0.09200
H551        H  0.08916306  0.95013582  0.86958435     0.09100
C552        C  0.12179935  0.00014921  0.60987017     0.06100
C553        C  0.12144816  0.97241572  0.62167868    -0.10000
C554        C  0.14490530  0.97415748  0.64645126     0.03600
C555        C  0.16918088  0.00360005  0.65949327    -0.08600
C556        C  0.16730949  0.52916821  0.64102277     0.06100
C557        C  0.14377200  0.52617404  0.61498753    -0.08000
H558        H  0.10269583  0.94936268  0.61182944     0.11700
H559        H  0.18733651  0.00473981  0.67878752     0.09200
H560        H  0.14589852  0.54743004  0.60230689     0.09100
C561        C  0.00583152  0.62382365  0.60624397     0.06100
C562        C  0.03355685  0.65080108  0.61974017    -0.10000
C563        C  0.03103486  0.67157450  0.64479963     0.03600
C564        C  0.00091117  0.66598751  0.65596585    -0.08600
C565        C  0.47303919  0.64345191  0.65451472     0.06100
C566        C  0.47088163  0.61765831  0.63480405    -0.08000
H567        H  0.05707290  0.65537338  0.61116472     0.11700
H568        H  0.99914991  0.68227858  0.67531708     0.09200
H569        H  0.44739617  0.59839004  0.62660344     0.09100
C570        C  0.49986694  0.62314504  0.88552688     0.06100
C571        C  0.46943328  0.61781176  0.87320758    -0.10000
C572        C  0.46723153  0.64033779  0.85009525     0.03600
C573        C  0.49521032  0.66790054  0.83929685    -0.08600
C574        C  0.02883245  0.67227409  0.85761769     0.06100
C575        C  0.03153506  0.65064783  0.88123149    -0.08000
H576        H  0.44763166  0.59684560  0.88191831     0.11700
H577        H  0.49357655  0.68521981  0.82145067     0.09200
H578        H  0.05506622  0.65601664  0.89135517     0.09100
Fe579      Fe  0.00777135  0.97010133  0.49598001     1.65800
Fe580      Fe  0.03257731  0.53911483  0.49063619     1.73200
Fe581      Fe  0.45127976  0.98536598  0.99971535     1.54400
O582        O  0.43689307  0.95291804  0.95627916    -0.78700
O583        O  0.01483868  0.56034752  0.52759825    -0.77000
O584        O  0.46086904  0.92527180  0.97180324    -0.81200
O585        O  0.46963412  0.94155432  0.54022403    -0.76100
O586        O  0.46608466  0.52414733  0.95432012    -0.77800
O587        O  0.05490208  0.53129449  0.53542387    -0.80600
C588        C  0.44272536  0.93801923  0.54978144     1.00200
C589        C  0.44071211  0.92896971  0.95249971     1.07600
O590        O  0.99452772  0.49624233  0.00598821    -1.09600
O591        O  0.04845924  0.51808586  0.95364507    -0.72000
O592        O  0.03245693  0.98697705  0.94908721    -0.75500
O593        O  0.43161112  0.95488954  0.53624156    -0.76200
C594        C  0.04481785  0.49083185  0.94655226     0.99100
O595        O  0.04697437  0.98900491  0.53294595    -0.74100
O596        O  0.01862625  0.55730549  0.96550226    -0.79300
C597        C  0.99086523  0.54991499  0.54958633     1.01700
C598        C  0.48904007  0.55149703  0.94588530     1.07600
O599        O  0.48302531  0.53706097  0.55478324    -0.75000
C600        C  0.06329236  0.01518555  0.55074949     1.05900
C601        C  0.50452975  0.60141867  0.91133283    -0.13500
C602        C  0.48267233  0.57078988  0.91822148    -0.28600
H603        H  0.03191958  0.61023882  0.93221377     0.15600
H604        H  0.45940243  0.55980316  0.90434698     0.16100
C605        C  0.00958703  0.60242095  0.57960115    -0.13500
C606        C  0.98873507  0.57105012  0.57776872    -0.28600
H607        H  0.03051560  0.61270693  0.56163237     0.15600
H608        H  0.54215419  0.60019755  0.59797426     0.16100
C609        C  0.09647610  0.99666348  0.58306673    -0.13500
C610        C  0.08741430  0.01853219  0.57888224    -0.28600
H611        H  0.08437649  0.97486024  0.56665123     0.15600
H612        H  0.09630136  0.53568337  0.58405811     0.16100
C613        C  0.09161604  0.51162237  0.90434409    -0.13500
C614        C  0.06402559  0.48704561  0.91696727    -0.28600
H615        H  0.06531241  0.97282068  0.90734775     0.15600
H616        H  0.05625364  0.46297249  0.90792996     0.16100
C617        C  0.40075386  0.90651310  0.90135594    -0.13500
C618        C  0.42083711  0.90371897  0.92535881    -0.28600
H619        H  0.39940677  0.92822483  0.90170934     0.15600
H620        H  0.42203315  0.88198811  0.92637934     0.16100
C621        C  0.39363115  0.90565257  0.58673131    -0.13500
C622        C  0.42357086  0.91280519  0.57730857    -0.28600
H623        H  0.38387530  0.91971790  0.57471674     0.15600
H624        H  0.43439647  0.89984291  0.58952194     0.16100
C625        C  0.14379847  0.94561758  0.65909129    -0.15500
C626        C  0.14351993  0.92248452  0.67155803     0.08500
C627        C  0.14465036  0.89714574  0.68905592     0.10400
C628        C  0.14728244  0.87750986  0.70679264    -0.16400
C629        C  0.14521716  0.87997433  0.78917198    -0.15500
C630        C  0.14032089  0.89961933  0.80352236     0.08500
C631        C  0.13599907  0.92424927  0.81810226     0.10400
C632        C  0.13400071  0.94667479  0.82913174    -0.16400
C633        C  0.29771380  0.85671454  0.83414048    -0.15500
C634        C  0.27345327  0.85628750  0.82484192     0.08500
C635        C  0.24500731  0.85414391  0.81118357     0.10400
C636        C  0.22112238  0.85055013  0.79581524    -0.16200
C637        C  0.29733698  0.85714127  0.66680269    -0.15500
C638        C  0.27376049  0.85572013  0.68028154     0.08500
C639        C  0.24593559  0.85238342  0.69746581     0.10400
C640        C  0.22229311  0.84849529  0.71348753    -0.16400
C641        C  0.05676075  0.70096887  0.84582814    -0.15500
C642        C  0.07798108  0.72505321  0.83256653     0.08500
C643        C  0.10042037  0.75272912  0.81376143     0.10400
C644        C  0.11809221  0.77577814  0.79568131    -0.16400
C645        C  0.11923028  0.77310217  0.71251461    -0.15500
C646        C  0.10214550  0.74953670  0.69463504     0.08500
C647        C  0.08019975  0.72203553  0.67484823     0.10400
C648        C  0.05910944  0.69872458  0.65975635    -0.16400
C649        C  0.37263478  0.64819399  0.78695167    -0.15500
C650        C  0.39080559  0.64237654  0.80451779     0.08500
C651        C  0.41426054  0.63746877  0.82316540     0.10400
C652        C  0.43675276  0.63627005  0.83703678    -0.16400
C653        C  0.44440959  0.64387997  0.66435779    -0.15500
C654        C  0.42104769  0.64470884  0.67440950     0.08500
C655        C  0.39514173  0.64686354  0.68897504     0.10400
C656        C  0.37482257  0.65023969  0.70414435    -0.16400
C657        C  0.34974717  0.72761325  0.70169421    -0.15500
C658        C  0.35552615  0.75171235  0.68538353     0.08500
C659        C  0.35995350  0.78021363  0.66904743     0.10400
C660        C  0.36065391  0.80400885  0.65763561    -0.16400
C661        C  0.36136281  0.80363924  0.83078039    -0.15500
C662        C  0.36002733  0.77996041  0.81811735     0.08500
C663        C  0.35501691  0.75158035  0.80100189     0.10400
C664        C  0.34899734  0.72751109  0.78453248    -0.16400
C665        C  0.19140000  0.56341546  0.82948059    -0.15500
C666        C  0.21548504  0.58489697  0.81629694     0.08500
C667        C  0.24416467  0.60751839  0.79899040     0.10400
C668        C  0.26852266  0.62511811  0.78268365    -0.16400
C669        C  0.19398739  0.55973705  0.65180165    -0.15500
C670        C  0.21770528  0.58256650  0.66440652     0.08500
C671        C  0.24596452  0.60638572  0.68229661     0.10400
C672        C  0.26982209  0.62469630  0.69969223    -0.16400
C673        C  0.82935252  0.15471511  0.21669138     0.48400
H674        H  0.83095154  0.15640016  0.18558327    -0.00600
C675        C  0.82562922  0.15096724  0.28986837     0.48500
H676        H  0.82417893  0.14953705  0.32099702    -0.00600
C677        C  0.83865705  0.18635047  0.23619326    -0.14300
C678        C  0.79565335  0.13157969  0.23131966    -0.14000
C679        C  0.85132364  0.14387982  0.23491538    -0.14400
C680        C  0.83665025  0.18433086  0.27447438    -0.14400
C681        C  0.79361130  0.12966440  0.26963276    -0.14000
C682        C  0.84937922  0.14195082  0.27321777    -0.14300
C683        C  0.67122583  0.32931070  0.20979702     0.48400
H684        H  0.67207818  0.32882159  0.17864819    -0.00600
C685        C  0.66924551  0.33051764  0.28305628     0.48500
H686        H  0.66827823  0.33096946  0.31419743    -0.00600
C687        C  0.64664081  0.29747004  0.22721000    -0.14300
C688        C  0.70314739  0.33789285  0.22938135    -0.14000
C689        C  0.66233260  0.35339450  0.22516594    -0.14400
C690        C  0.64565021  0.29817894  0.26555486    -0.14400
C691        C  0.70214340  0.33840239  0.26776268    -0.14000
C692        C  0.66129974  0.35404471  0.26350733    -0.14300
C693        C  0.88683716  0.37143925  0.12499182     0.06100
C694        C  0.86010657  0.37446627  0.13482347    -0.10000
C695        C  0.83576551  0.35127902  0.15698591     0.03600
C696        C  0.83781150  0.32503006  0.16941194    -0.08600
C697        C  0.86394921  0.32158036  0.15955135     0.06100
C698        C  0.88837864  0.34463046  0.13730152    -0.08000
H699        H  0.85754363  0.39411976  0.12455364     0.11700
H700        H  0.81882603  0.30705318  0.18648900     0.09200
H701        H  0.90845087  0.34163422  0.12942940     0.09100
C702        C  0.87772696  0.36347610  0.39236846     0.06100
C703        C  0.85198070  0.36784438  0.38040353    -0.10000
C704        C  0.82723591  0.34488100  0.35774527     0.03600
C705        C  0.82789617  0.31748003  0.34729766    -0.08600
C706        C  0.85299987  0.31282058  0.35928216     0.06100
C707        C  0.87773169  0.33560825  0.38178995    -0.08000
H708        H  0.85063545  0.38853687  0.38888183     0.11700
H709        H  0.80890814  0.29980124  0.32959800     0.09200
H710        H  0.89716107  0.33176970  0.39078046     0.09100
C711        C  0.60408184  0.99306325  0.37675526     0.06100
C712        C  0.63077018  0.02230141  0.36552959    -0.10000
C713        C  0.65585195  0.02250303  0.34526484     0.03600
C714        C  0.65441481  0.99386430  0.33609672    -0.08600
C715        C  0.63608518  0.46534446  0.33868366     0.06100
C716        C  0.61100206  0.46245477  0.36112195    -0.08000
H717        H  0.63249415  0.04478775  0.37237186     0.11700
H718        H  0.67385945  0.99407351  0.32060901     0.09200
H719        H  0.59184992  0.43898545  0.36874477     0.09100
C720        C  0.61786971  0.49435398  0.11698785     0.06100
C721        C  0.61782357  0.46602655  0.12607085    -0.10000
C722        C  0.64276174  0.46686614  0.14764370     0.03600
C723        C  0.66787052  0.49595576  0.16039144    -0.08600
C724        C  0.66553930  0.02101588  0.14751004     0.06100
C725        C  0.64160364  0.01980243  0.12369348    -0.08000
H726        H  0.59853414  0.44333368  0.11611913     0.11700
H727        H  0.68722760  0.49663275  0.17704544     0.09200
H728        H  0.64438666  0.04182158  0.11269237     0.09100
C729        C  0.50211461  0.11878992  0.10795757     0.06100
C730        C  0.53037403  0.14563745  0.12090914    -0.10000
C731        C  0.52898735  0.16761568  0.14509503     0.03600
C732        C  0.49926626  0.16323016  0.15627707    -0.08600
C733        C  0.97905159  0.14469426  0.16218382     0.06100
C734        C  0.98071182  0.12231668  0.13888314    -0.08000
H735        H  0.55358409  0.14940278  0.11224539     0.11700
H736        H  0.49836035  0.18047499  0.17481992     0.09200
H737        H  0.95855004  0.10193237  0.12944579     0.09100
C738        C  0.00917729  0.13029859  0.38837751     0.06100
C739        C  0.97926121  0.12465486  0.37439872    -0.10000
C740        C  0.97717597  0.14770212  0.35284216     0.03600
C741        C  0.00488804  0.17631335  0.34436557    -0.08600
C742        C  0.52558353  0.17181886  0.34681499     0.06100
C743        C  0.52707190  0.14928324  0.36998693    -0.08000
H744        H  0.95753391  0.10244172  0.37965392     0.11700
H745        H  0.00316766  0.19402796  0.32740262     0.09200
H746        H  0.55031472  0.15272080  0.37849914     0.09100
Fe747      Fe  0.51295829  0.46757928  0.99698446     1.65800
Fe748      Fe  0.53220268  0.03491613  0.99336902     1.73200
Fe749      Fe  0.95263160  0.49296119  0.50123813     1.54400
O750        O  0.93529872  0.46417885  0.45519740    -0.78700
O751        O  0.51318871  0.05503573  0.03044426    -0.77000
O752        O  0.95650781  0.43270243  0.46302448    -0.81200
O753        O  0.95470203  0.43490541  0.04470339    -0.76100
O754        O  0.96903255  0.04144276  0.47531241    -0.77800
O755        O  0.55646818  0.02945543  0.03850704    -0.80600
C756        C  0.94036285  0.44520872  0.06524283     1.00200
C757        C  0.93636585  0.43925294  0.44759693     1.07600
O758        O  0.49242127  0.00152005  0.49991827    -1.09600
O759        O  0.55522105  0.03478860  0.46138923    -0.72000
O760        O  0.53868024  0.47879339  0.45563983    -0.75500
O761        O  0.94273062  0.47216791  0.06025450    -0.76200
C762        C  0.55111236  0.01063825  0.44295681     0.99100
O763        O  0.54339368  0.48516144  0.04228279    -0.74100
O764        O  0.51146519  0.05953613  0.45775487    -0.79300
C765        C  0.48685250  0.04514210  0.04818331     1.01700
C766        C  0.99286481  0.06171690  0.45643478     1.07600
O767        O  0.96709728  0.02774017  0.05708629    -0.75000
C768        C  0.56594704  0.51306060  0.04952132     1.05900
C769        C  0.01248024  0.10680288  0.41213839    -0.13500
C770        C  0.98799841  0.08298030  0.43086209    -0.28600
H771        H  0.52615546  0.10249305  0.41005045     0.15600
H772        H  0.96404856  0.07977413  0.42929623     0.16100
C773        C  0.50556207  0.09684154  0.08133190    -0.13500
C774        C  0.48321604  0.06611546  0.07582948    -0.28600
H775        H  0.52803546  0.10634825  0.06622871     0.15600
H776        H  0.96838093  0.06406877  0.11069885     0.16100
C777        C  0.59139806  0.49218660  0.09284359    -0.13500
C778        C  0.59086222  0.51728617  0.07716089    -0.28600
H779        H  0.57207627  0.46840536  0.08605022     0.15600
H780        H  0.59939248  0.03502056  0.08767967     0.16100
C781        C  0.57715621  0.99058059  0.39990613    -0.13500
C782        C  0.57567389  0.01531410  0.41488111    -0.28600
H783        H  0.57267867  0.46288872  0.41582148     0.15600
H784        H  0.59423595  0.03952588  0.40940707     0.16100
C785        C  0.90441745  0.38665118  0.41689155    -0.13500
C786        C  0.91220828  0.41722488  0.42039361    -0.28600
H787        H  0.91810906  0.37815888  0.43271138     0.15600
H788        H  0.89933571  0.42639124  0.40427903     0.16100
C789        C  0.91212104  0.39436973  0.09955937    -0.13500
C790        C  0.91878809  0.42462315  0.09497008    -0.28600
H791        H  0.92526807  0.38568596  0.08339988     0.15600
H792        H  0.90689487  0.43414907  0.11194968     0.16100
C793        C  0.64291911  0.43809459  0.15726896    -0.15500
C794        C  0.64544478  0.41588524  0.16817202     0.08500
C795        C  0.65044671  0.39211190  0.18439171     0.10400
C796        C  0.65567823  0.37359805  0.20131567    -0.16400
C797        C  0.65318167  0.37478976  0.28381570    -0.15500
C798        C  0.64674398  0.39318943  0.29867442     0.08500
C799        C  0.64043735  0.41627521  0.31412245     0.10400
C800        C  0.63698908  0.43763232  0.32599237    -0.16400
C801        C  0.80116016  0.34908361  0.34418602    -0.15500
C802        C  0.77850757  0.34957276  0.32986755     0.08500
C803        C  0.75170202  0.34751018  0.31037125     0.10400
C804        C  0.72899001  0.34412251  0.29187764    -0.16200
C805        C  0.80816413  0.35368996  0.16695156    -0.15500
C806        C  0.78406481  0.35269837  0.17786670     0.08500
C807        C  0.75553769  0.34884375  0.19346365     0.10400
C808        C  0.73141488  0.34419111  0.20887851    -0.16400
C809        C  0.55447266  0.19897995  0.33385139    -0.15500
C810        C  0.57749896  0.22194354  0.32117417     0.08500
C811        C  0.60290403  0.24881239  0.30414981     0.10400
C812        C  0.62317998  0.27152178  0.28763563    -0.16400
C813        C  0.62521134  0.26985538  0.20499324    -0.15500
C814        C  0.60560173  0.24630435  0.18853291     0.08500
C815        C  0.58073801  0.21852490  0.17143534     0.10400
C816        C  0.55796993  0.19503180  0.15852905    -0.16400
C817        C  0.87165990  0.13738292  0.29605790    -0.15500
C818        C  0.89341823  0.13654081  0.31195117     0.08500
C819        C  0.92137944  0.13849686  0.32752131     0.10400
C820        C  0.94648790  0.14203134  0.33936870    -0.16400
C821        C  0.94847821  0.14041530  0.17379804    -0.15500
C822        C  0.92403282  0.13882414  0.18475370     0.08500
C823        C  0.89682624  0.13888738  0.19938678     0.10400
C824        C  0.87507538  0.14036760  0.21404247    -0.16400
C825        C  0.84827002  0.21543841  0.21581759    -0.15500
C826        C  0.85546865  0.24022454  0.20046034     0.08500
C827        C  0.86195317  0.26936409  0.18429025     0.10400
C828        C  0.86479673  0.29379348  0.17202941    -0.16400
C829        C  0.85350267  0.28484527  0.34731490    -0.15500
C830        C  0.85198062  0.26121111  0.33450790     0.08500
C831        C  0.84811249  0.23378518  0.31635423     0.10400
C832        C  0.84342644  0.21089000  0.29838626    -0.16400
C833        C  0.68374594  0.05161681  0.33363723    -0.15500
C834        C  0.70873454  0.07257509  0.32131333     0.08500
C835        C  0.73856327  0.09389455  0.30483648     0.10400
C836        C  0.76385341  0.11048057  0.28948771    -0.16400
C837        C  0.69295451  0.05079379  0.15806129    -0.15500
C838        C  0.71690964  0.07327086  0.17031275     0.08500
C839        C  0.74508433  0.09636361  0.18840536     0.10400
C840        C  0.76859845  0.11354508  0.20669054    -0.16400
C841        C  0.83265335  0.16518827  0.70186043     0.48400
H842        H  0.83350040  0.16551789  0.67069081    -0.00600
C843        C  0.83091832  0.16453774  0.77518301     0.48500
H844        H  0.83013062  0.16422206  0.80636711    -0.00600
C845        C  0.84241635  0.19768852  0.71961497    -0.14300
C846        C  0.79926157  0.14244251  0.71784237    -0.14000
C847        C  0.85503581  0.15496718  0.72068620    -0.14400
C848        C  0.84158540  0.19731546  0.75802727    -0.14400
C849        C  0.79853405  0.14225371  0.75624797    -0.14000
C850        C  0.85401569  0.15453927  0.75907822    -0.14300
C851        C  0.66499927  0.32880120  0.72219430     0.48400
H852        H  0.66460269  0.32801635  0.69099476    -0.00600
C853        C  0.66593039  0.33071465  0.79557002     0.48500
H854        H  0.66636557  0.33157350  0.82675460    -0.00600
C855        C  0.64161070  0.29715563  0.74065564    -0.14300
C856        C  0.69770763  0.33807629  0.73969431    -0.14000
C857        C  0.65645015  0.35272404  0.73854915    -0.14400
C858        C  0.64200873  0.29805826  0.77902588    -0.14400
C859        C  0.69824794  0.33902183  0.77807827    -0.14000
C860        C  0.65692340  0.35381205  0.77693031    -0.14300
C861        C  0.87598237  0.38061075  0.61463118     0.06100
C862        C  0.84917406  0.38129337  0.62893887    -0.10000
C863        C  0.82744207  0.35684889  0.65208271     0.03600
C864        C  0.83211091  0.33138913  0.66092798    -0.08600
C865        C  0.85838760  0.33007650  0.64662237     0.06100
C866        C  0.88040098  0.35461029  0.62350086    -0.08000
H867        H  0.84519572  0.40086097  0.62204809     0.11700
H868        H  0.81510080  0.31240809  0.67879115     0.09200
H869        H  0.90018202  0.35283780  0.61192149     0.09100
C870        C  0.88228930  0.37385960  0.88678290     0.06100
C871        C  0.85546202  0.37678457  0.87628174    -0.10000
C872        C  0.83164926  0.35418728  0.85260674     0.03600
C873        C  0.83446491  0.32880763  0.83875981    -0.08600
C874        C  0.86098028  0.32571178  0.84843321     0.06100
C875        C  0.88485346  0.34814342  0.87235629    -0.08000
H876        H  0.85280107  0.39647181  0.88589667     0.11700
H877        H  0.81594761  0.31141187  0.82033670     0.09200
H878        H  0.90530223  0.34548357  0.87986575     0.09100
C879        C  0.62061933  0.00624667  0.87986553     0.06100
C880        C  0.64731537  0.03336199  0.86534062    -0.10000
C881        C  0.66847521  0.03041867  0.84125750     0.03600
C882        C  0.66349679  0.00040942  0.83165315    -0.08600
C883        C  0.64669977  0.47502697  0.84797987     0.06100
C884        C  0.62305222  0.47403988  0.87131558    -0.08000
H885        H  0.65160369  0.05685733  0.87269920     0.11700
H886        H  0.68017985  0.99842127  0.81307049     0.09200
H887        H  0.60405155  0.45120401  0.88103852     0.09100
C888        C  0.62190100  0.49275541  0.61330040     0.06100
C889        C  0.62191902  0.46535610  0.62604948    -0.10000
C890        C  0.64697192  0.46778964  0.64861254     0.03600
C891        C  0.67243711  0.49760914  0.65868954    -0.08600
C892        C  0.66619215  0.02606349  0.64002511     0.06100
C893        C  0.64104768  0.02393570  0.61730883    -0.08000
H894        H  0.60232163  0.44199468  0.61847906     0.11700
H895        H  0.69174944  0.49928672  0.67634709     0.09200
H896        H  0.64264671  0.04560239  0.60672150     0.09100
C897        C  0.49827127  0.11993674  0.62153964     0.06100
C898        C  0.52605318  0.14648879  0.63555780    -0.10000
C899        C  0.52375623  0.16809016  0.65931137     0.03600
C900        C  0.49372359  0.16359428  0.66904728    -0.08600
C901        C  0.97800603  0.14530596  0.65443998     0.06100
C902        C  0.98043239  0.12263404  0.63260569    -0.08000
H903        H  0.54953561  0.15038563  0.62792540     0.11700
H904        H  0.49212003  0.18059265  0.68733891     0.09200
H905        H  0.95869123  0.10253209  0.62174102     0.09100
C906        C  0.99972008  0.12526653  0.88790934     0.06100
C907        C  0.96974409  0.12003812  0.87419464    -0.10000
C908        C  0.96827177  0.14249147  0.85050345     0.03600
C909        C  0.99647179  0.17001500  0.84032454    -0.08600
C910        C  0.52416925  0.16498102  0.85081842     0.06100
C911        C  0.52593999  0.14060803  0.86976117    -0.08000
H912        H  0.94764914  0.09872610  0.88125428     0.11700
H913        H  0.99528245  0.18727723  0.82192886     0.09200
H914        H  0.54930100  0.14397891  0.87756251     0.09100
Fe915      Fe  0.50574761  0.46257423  0.49953662     1.65800
Fe916      Fe  0.52973615  0.04458674  0.50086774     1.73200
Fe917      Fe  0.95578042  0.49953413  0.01247332     1.54400
O918        O  0.92730344  0.45976939  0.97903868    -0.78700
O919        O  0.50973864  0.06093545  0.54056208    -0.77000
O920        O  0.95718495  0.43862972  0.96218372    -0.81200
O921        O  0.97400354  0.44173985  0.54423490    -0.76100
O922        O  0.96154070  0.03614645  0.97515127    -0.77800
O923        O  0.55138591  0.03325782  0.54383041    -0.80600
C924        C  0.94690092  0.43820991  0.55267072     1.00200
C925        C  0.93185934  0.44050752  0.95941505     1.07600
O926        O  0.49496991  0.99194517  0.99887749    -1.09600
O927        O  0.55542520  0.01931214  0.95568841    -0.72000
O928        O  0.55125014  0.49009864  0.96043731    -0.75500
O929        O  0.93530931  0.45372342  0.53652324    -0.76200
C930        C  0.54935967  0.99218392  0.94286414     0.99100
O931        O  0.54334660  0.47907801  0.53855556    -0.74100
O932        O  0.51232163  0.04611384  0.94797983    -0.79300
C933        C  0.48394798  0.04909399  0.55943370     1.01700
C934        C  0.98528398  0.05771337  0.95736531     1.07600
O935        O  0.97094357  0.02772928  0.55618984    -0.75000
C936        C  0.56746580  0.50674904  0.54407958     1.05900
C937        C  0.00339917  0.10265891  0.91310393    -0.13500
C938        C  0.97923514  0.07772714  0.93076156    -0.28600
H939        H  0.52653455  0.09396033  0.90767294     0.15600
H940        H  0.95461369  0.07240782  0.92716157     0.16100
C941        C  0.50234612  0.09883335  0.59486757    -0.13500
C942        C  0.48029688  0.06817753  0.58914180    -0.28600
H943        H  0.52467734  0.10911629  0.57935833     0.15600
H944        H  0.96993492  0.06397230  0.60824451     0.16100
C945        C  0.59442332  0.48820313  0.58906003    -0.13500
C946        C  0.59398986  0.51165223  0.56951544    -0.28600
H947        H  0.57412028  0.46422777  0.58612401     0.15600
H948        H  0.59281569  0.03511507  0.59113451     0.16100
C949        C  0.59957408  0.01123256  0.90636577    -0.13500
C950        C  0.56895306  0.98922039  0.91297048    -0.28600
H951        H  0.58554223  0.47654512  0.92340144     0.15600
H952        H  0.55837735  0.96665944  0.89816633     0.16100
C953        C  0.90815000  0.39694906  0.91237962    -0.13500
C954        C  0.90620296  0.41925556  0.93295870    -0.28600
H955        H  0.92953456  0.39477946  0.91525454     0.15600
H956        H  0.88491792  0.42158146  0.93185461     0.16100
C957        C  0.89739153  0.40649546  0.58879107    -0.13500
C958        C  0.92781163  0.41420339  0.58130620    -0.28600
H959        H  0.88747072  0.41987893  0.57528618     0.15600
H960        H  0.93869320  0.40194517  0.59526862     0.16100
C961        C  0.64609186  0.43967961  0.66282664    -0.15500
C962        C  0.64626588  0.41732037  0.67720448     0.08500
C963        C  0.64794497  0.39295437  0.69670261     0.10400
C964        C  0.65091461  0.37378009  0.71513966    -0.16400
C965        C  0.65169937  0.37621549  0.79785811    -0.15500
C966        C  0.64853659  0.39680191  0.81252810     0.08500
C967        C  0.64637881  0.42273523  0.82677756     0.10400
C968        C  0.64586572  0.44609594  0.83710211    -0.16400
C969        C  0.80395545  0.35656392  0.84220281    -0.15500
C970        C  0.77972957  0.35566051  0.83130238     0.08500
C971        C  0.75088502  0.35172018  0.81584881     0.10400
C972        C  0.72648495  0.34656941  0.80011235    -0.16200
C973        C  0.80004421  0.35741746  0.66689270    -0.15500
C974        C  0.77650699  0.35540947  0.68113737     0.08500
C975        C  0.74878481  0.35064065  0.69982759     0.10400
C976        C  0.72531862  0.34523691  0.71731524    -0.16400
C977        C  0.55293757  0.19398502  0.84132557    -0.15500
C978        C  0.57581108  0.21856499  0.83144700     0.08500
C979        C  0.60094425  0.24723443  0.81703575     0.10400
C980        C  0.62072548  0.27106340  0.80165019    -0.16400
C981        C  0.61989962  0.26945008  0.71921218    -0.15500
C982        C  0.60006551  0.24597185  0.70316084     0.08500
C983        C  0.57499997  0.21847182  0.68642795     0.10400
C984        C  0.55221328  0.19524390  0.67349757    -0.16400
C985        C  0.87386698  0.14679179  0.78265557    -0.15500
C986        C  0.89196726  0.14161479  0.80109026     0.08500
C987        C  0.91554413  0.13794373  0.82091659     0.10400
C988        C  0.93815807  0.13786971  0.83585270    -0.16400
C989        C  0.94723374  0.14185791  0.66296093    -0.15500
C990        C  0.92312334  0.14175541  0.67214129     0.08500
C991        C  0.89704958  0.14437300  0.68563763     0.10400
C992        C  0.87674656  0.14841961  0.69992391    -0.16400
C993        C  0.85076836  0.22587003  0.69771866    -0.15500
C994        C  0.85647542  0.25015115  0.68195562     0.08500
C995        C  0.86090872  0.27888650  0.66642116     0.10400
C996        C  0.86182733  0.30295955  0.65577751    -0.16400
C997        C  0.86299356  0.29920181  0.83336860    -0.15500
C998        C  0.86103628  0.27601995  0.81833348     0.08500
C999        C  0.85570231  0.24847978  0.79871195     0.10400
C1000       C  0.84965690  0.22505998  0.78073267    -0.16400
C1001       C  0.69568320  0.05813960  0.82628722    -0.15500
C1002       C  0.71903272  0.07979400  0.81224566     0.08500
C1003       C  0.74666723  0.10324292  0.79419617     0.10400
C1004       C  0.77032111  0.12176074  0.77750725    -0.16400
C1005       C  0.69376078  0.05634729  0.65022714    -0.15500
C1006       C  0.71814998  0.07914881  0.66175465     0.08500
C1007       C  0.74714070  0.10330833  0.67818175     0.10400
C1008       C  0.77141825  0.12207012  0.69467301    -0.16400
C1009       C  0.82888316  0.66619960  0.21596032     0.48400
H1010       H  0.82933684  0.66688478  0.18477394    -0.00600
C1011       C  0.82775981  0.66427922  0.28932011     0.48500
H1012       H  0.82741225  0.66356900  0.32050585    -0.00600
C1013       C  0.83906804  0.69845949  0.23435800    -0.14300
C1014       C  0.79574147  0.64330643  0.23244546    -0.14000
C1015       C  0.85136956  0.65567815  0.23349432    -0.14400
C1016       C  0.83827179  0.69732924  0.27277027    -0.14400
C1017       C  0.79507854  0.64223494  0.27084511    -0.14000
C1018       C  0.85069833  0.65450726  0.27187614    -0.14300
C1019       C  0.67371812  0.83574845  0.22452740     0.48400
H1020       H  0.67506180  0.83561170  0.19339897    -0.00600
C1021       C  0.67052719  0.83602061  0.29773705     0.48500
H1022       H  0.66905673  0.83604448  0.32885623    -0.00600
C1023       C  0.65154759  0.80296650  0.24148868    -0.14300
C1024       C  0.70603182  0.84731540  0.24463638    -0.14000
C1025       C  0.66110675  0.85695333  0.23977393    -0.14400
C1026       C  0.64989131  0.80314626  0.27979441    -0.14400
C1027       C  0.70443201  0.84751810  0.28295919    -0.14000
C1028       C  0.65942037  0.85707958  0.27807375    -0.14300
C1029       C  0.88354710  0.88386143  0.12321014     0.06100
C1030       C  0.85738130  0.88501704  0.13877782    -0.10000
C1031       C  0.83650687  0.86139251  0.16324060     0.03600
C1032       C  0.84134951  0.83615983  0.17249520    -0.08600
C1033       C  0.86697348  0.83415309  0.15726442     0.06100
C1034       C  0.88828920  0.85802217  0.13258453    -0.08000
H1035       H  0.85309159  0.90436445  0.13171784     0.11700
H1036       H  0.82485125  0.81777305  0.19136168     0.09200
H1037       H  0.90771761  0.85593373  0.12049079     0.09100
C1038       C  0.88735599  0.87883098  0.39071970     0.06100
C1039       C  0.86090287  0.88322729  0.38283489    -0.10000
C1040       C  0.83450092  0.86026935  0.36223497     0.03600
C1041       C  0.83423665  0.83289967  0.34965744    -0.08600
C1042       C  0.86005243  0.82819824  0.35770834     0.06100
C1043       C  0.88644492  0.85095670  0.37826342    -0.08000
H1044       H  0.86025616  0.90384940  0.39315449     0.11700
H1045       H  0.81388159  0.81519968  0.33356093     0.09200
H1046       H  0.90633622  0.84702196  0.38443613     0.09100
C1047       C  0.61071932  0.48966816  0.37420042     0.06100
C1048       C  0.63645140  0.52007742  0.36457021    -0.10000
C1049       C  0.66166293  0.52284986  0.34213139     0.03600
C1050       C  0.66118804  0.49543705  0.32919330    -0.08600
C1051       C  0.62827480  0.96496414  0.34685527     0.06100
C1052       C  0.60318687  0.96449690  0.36693504    -0.08000
H1053       H  0.63764089  0.54148783  0.37531319     0.11700
H1054       H  0.68071075  0.49752969  0.31208791     0.09200
H1055       H  0.58314143  0.94182328  0.37535330     0.09100
C1056       C  0.61490938  0.99020430  0.11375750     0.06100
C1057       C  0.61299120  0.96212762  0.12780610    -0.10000
C1058       C  0.63707277  0.96358025  0.15150334     0.03600
C1059       C  0.66317599  0.99299772  0.16140988    -0.08600
C1060       C  0.66811997  0.52418402  0.15180217     0.06100
C1061       C  0.64321104  0.52350831  0.13045765    -0.08000
H1062       H  0.59286380  0.93912816  0.12014498     0.11700
H1063       H  0.68185212  0.99408852  0.17977419     0.09200
H1064       H  0.64400565  0.54576822  0.12475145     0.09100
C1065       C  0.51354472  0.62258217  0.12057988     0.06100
C1066       C  0.54202995  0.64875252  0.13438664    -0.10000
C1067       C  0.54086682  0.67140562  0.15759635     0.03600
C1068       C  0.51129951  0.66806749  0.16739068    -0.08600
C1069       C  0.96963229  0.64207335  0.15606231     0.06100
C1070       C  0.96719028  0.61712198  0.13405898    -0.08000
H1071       H  0.56513662  0.65170216  0.12677693     0.11700
H1072       H  0.51045494  0.68570266  0.18529038     0.09200
H1073       H  0.94358500  0.59765725  0.12663658     0.09100
C1074       C  0.99870099  0.61304744  0.37144972     0.06100
C1075       C  0.96848442  0.60969794  0.36210870    -0.10000
C1076       C  0.96669913  0.63378535  0.34218864     0.03600
C1077       C  0.99481358  0.66095179  0.33110800    -0.08600
C1078       C  0.53301694  0.67200762  0.35540963     0.06100
C1079       C  0.53434590  0.64903891  0.37785015    -0.08000
H1080       H  0.94640519  0.58868843  0.36998401     0.11700
H1081       H  0.99341339  0.67966281  0.31593556     0.09200
H1082       H  0.55748583  0.65285615  0.38746343     0.09100
Fe1083     Fe  0.50100241  0.95486444  0.00347174     1.65800
Fe1084     Fe  0.54033297  0.54735162  0.99690078     1.73200
Fe1085     Fe  0.95867004  0.00147746  0.50756264     1.54400
O1086       O  0.94276639  0.97488722  0.45957359    -0.78700
O1087       O  0.52359824  0.56013798  0.04284655    -0.77000
O1088       O  0.96877688  0.94734805  0.45872984    -0.81200
O1089       O  0.97436826  0.94257346  0.03980047    -0.76100
O1090       O  0.96304073  0.53131184  0.46647820    -0.77800
O1091       O  0.56866670  0.53760428  0.03308822    -0.80600
C1092       C  0.94986344  0.94109535  0.05479273     1.00200
C1093       C  0.94685426  0.95283968  0.44678709     1.07600
O1094       O  0.50346459  0.50204871  0.50391233    -1.09600
O1095       O  0.55523865  0.53007215  0.44765130    -0.72000
O1096       O  0.52772375  0.98289609  0.44884069    -0.75500
O1097       O  0.93956955  0.95990668  0.04598174    -0.76200
C1098       C  0.55503434  0.50488387  0.43825535     0.99100
O1099       O  0.54204456  0.97826442  0.03560504    -0.74100
O1100       O  0.51952070  0.56082779  0.46323144    -0.79300
C1101       C  0.49552893  0.55351466  0.05222024     1.01700
C1102       C  0.98558297  0.54855556  0.44420068     1.07600
O1103       O  0.97845123  0.54003238  0.04640309    -0.75000
C1104       C  0.55949405  0.00601467  0.04873161     1.05900
C1105       C  0.00248841  0.58942775  0.39446447    -0.13500
C1106       C  0.97963156  0.56829949  0.41727206    -0.28600
H1107       H  0.53333805  0.60235720  0.41701085     0.15600
H1108       H  0.95642238  0.56682232  0.41858847     0.16100
C1109       C  0.51639396  0.60015220  0.09447030    -0.13500
C1110       C  0.49147537  0.57286088  0.08132338    -0.28600
H1111       H  0.54032259  0.60699425  0.08477904     0.15600
H1112       H  0.03714754  0.59769838  0.09739724     0.16100
C1113       C  0.58931889  0.98712805  0.08748596    -0.13500
C1114       C  0.58465155  0.01120466  0.07659060    -0.28600
H1115       H  0.57334204  0.96342987  0.07648225     0.15600
H1116       H  0.60994463  0.54138397  0.08230833     0.16100
C1117       C  0.58472987  0.48515564  0.40044383    -0.13500
C1118       C  0.57634880  0.50735338  0.40703807    -0.28600
H1119       H  0.55830117  0.96671683  0.40690883     0.15600
H1120       H  0.58757865  0.52942932  0.39133438     0.16100
C1121       C  0.91533644  0.90167166  0.41377434    -0.13500
C1122       C  0.92363481  0.93231570  0.41797943    -0.28600
H1123       H  0.92890242  0.89262019  0.42883097     0.15600
H1124       H  0.91060602  0.94188656  0.40291532     0.16100
C1125       C  0.90375570  0.90964602  0.09629971    -0.13500
C1126       C  0.93237063  0.91573833  0.08299070    -0.28600
H1127       H  0.89430589  0.92475188  0.08690812     0.15600
H1128       H  0.94286046  0.90145766  0.09179731     0.16100
C1129       C  0.63582654  0.93516686  0.16554947    -0.15500
C1130       C  0.63839726  0.91384663  0.17937311     0.08500
C1131       C  0.64472234  0.89180102  0.19787706     0.10400
C1132       C  0.65181172  0.87506553  0.21576831    -0.16400
C1133       C  0.64808413  0.87526194  0.29825454    -0.15500
C1134       C  0.63948800  0.89210798  0.31279389     0.08500
C1135       C  0.63166272  0.91439881  0.32720075     0.10400
C1136       C  0.62802524  0.93604660  0.33735971    -0.16400
C1137       C  0.80745725  0.86430375  0.35316974    -0.15500
C1138       C  0.78359034  0.86409735  0.34196082     0.08500
C1139       C  0.75530774  0.86049954  0.32491777     0.10400
C1140       C  0.73164324  0.85539106  0.30731570    -0.16200
C1141       C  0.80957968  0.86255740  0.17853404    -0.15500
C1142       C  0.78641039  0.86182188  0.19214056     0.08500
C1143       C  0.75875494  0.85888120  0.20914025     0.10400
C1144       C  0.73482494  0.85458008  0.22470261    -0.16400
C1145       C  0.56190831  0.70009424  0.34450734    -0.15500
C1146       C  0.58474196  0.72391477  0.33316601     0.08500
C1147       C  0.60952907  0.75182699  0.31723515     0.10400
C1148       C  0.62891921  0.77544765  0.30134990    -0.16400
C1149       C  0.63267565  0.77492899  0.21882319    -0.15500
C1150       C  0.61497319  0.75093021  0.20183767     0.08500
C1151       C  0.59180319  0.72255681  0.18425262     0.10400
C1152       C  0.56978678  0.69867897  0.17110265    -0.16400
C1153       C  0.87067122  0.64590641  0.29388000    -0.15500
C1154       C  0.88921996  0.63938502  0.30898519     0.08500
C1155       C  0.91335592  0.63363041  0.32337112     0.10400
C1156       C  0.93633390  0.63155869  0.33322234    -0.16400
C1157       C  0.94119242  0.64198851  0.16862135    -0.15500
C1158       C  0.91838505  0.64324473  0.18029373     0.08500
C1159       C  0.89308049  0.64614207  0.19591205     0.10400
C1160       C  0.87302046  0.64979608  0.21155208    -0.16400
C1161       C  0.84949975  0.72748627  0.21293131    -0.15500
C1162       C  0.85805508  0.75231258  0.19657395     0.08500
C1163       C  0.86629077  0.78182821  0.17937385     0.10400
C1164       C  0.86974024  0.80665174  0.16716360    -0.16400
C1165       C  0.85928514  0.79998143  0.34424799    -0.15500
C1166       C  0.85666797  0.77601963  0.33100297     0.08500
C1167       C  0.85165026  0.74806083  0.31316220     0.10400
C1168       C  0.84609174  0.72459332  0.29585425    -0.16400
C1169       C  0.68888339  0.55343943  0.33268902    -0.15500
C1170       C  0.71315033  0.57664279  0.32213794     0.08500
C1171       C  0.74215443  0.60143712  0.30709681     0.10400
C1172       C  0.76662274  0.62087244  0.29199151    -0.16400
C1173       C  0.69432594  0.55387312  0.16483507    -0.15500
C1174       C  0.71723998  0.57747360  0.17693712     0.08500
C1175       C  0.74477416  0.60307169  0.19315209     0.10400
C1176       C  0.76833323  0.62277385  0.20947439    -0.16400
C1177       C  0.83667284  0.66626109  0.70751879     0.48400
H1178       H  0.83628793  0.66606169  0.67632311    -0.00600
C1179       C  0.83749979  0.66650452  0.78086566     0.48500
H1180       H  0.83778899  0.66664262  0.81206803    -0.00600
C1181       C  0.84753867  0.69921833  0.72482759    -0.14300
C1182       C  0.80376989  0.64406978  0.72516233    -0.14000
C1183       C  0.85923242  0.65559964  0.72497001    -0.14400
C1184       C  0.84788952  0.69919336  0.76328389    -0.14400
C1185       C  0.80423345  0.64433976  0.76360899    -0.14000
C1186       C  0.85965237  0.65564905  0.76345247    -0.14300
C1187       C  0.66776807  0.83390501  0.71671357     0.48400
H1188       H  0.66780706  0.83292204  0.68554924    -0.00600
C1189       C  0.66764465  0.83622291  0.78999694     0.48500
H1190       H  0.66752721  0.83708536  0.82116125    -0.00600
C1191       C  0.64436903  0.80195910  0.73505985    -0.14300
C1192       C  0.70048745  0.84352361  0.73496704    -0.14000
C1193       C  0.65834545  0.85769275  0.73237015    -0.14400
C1194       C  0.64414667  0.80328304  0.77344448    -0.14400
C1195       C  0.70050775  0.84476089  0.77339339    -0.14000
C1196       C  0.65819291  0.85889264  0.77080325    -0.14300
C1197       C  0.88168524  0.88303645  0.61623736     0.06100
C1198       C  0.85426606  0.88303939  0.63009740    -0.10000
C1199       C  0.83221143  0.85827792  0.65283953     0.03600
C1200       C  0.83730707  0.83311710  0.66201280    -0.08600
C1201       C  0.86416002  0.83226975  0.64863878     0.06100
C1202       C  0.88645614  0.85721889  0.62575272    -0.08000
H1203       H  0.84995821  0.90236884  0.62305360     0.11700
H1204       H  0.82014127  0.81394759  0.67955121     0.09200
H1205       H  0.90683479  0.85600453  0.61516759     0.09100
C1206       C  0.88412576  0.87637539  0.88509320     0.06100
C1207       C  0.85733282  0.87981175  0.87520763    -0.10000
C1208       C  0.83296894  0.85747293  0.85146837     0.03600
C1209       C  0.83512881  0.83162329  0.83774749    -0.08600
C1210       C  0.86117611  0.82773081  0.84761734     0.06100
C1211       C  0.88547119  0.84992486  0.87120911    -0.08000
H1212       H  0.85481320  0.89921625  0.88612593     0.11700
H1213       H  0.81638772  0.81438232  0.81942076     0.09200
H1214       H  0.90552999  0.84661119  0.87869865     0.09100
C1215       C  0.62376735  0.50219095  0.88235615     0.06100
C1216       C  0.64904126  0.53171138  0.86973508    -0.10000
C1217       C  0.67290280  0.53257761  0.84633891     0.03600
C1218       C  0.67148250  0.50420515  0.83545689    -0.08600
C1219       C  0.63745633  0.97296896  0.84608615     0.06100
C1220       C  0.61586961  0.97574927  0.87023043    -0.08000
H1221       H  0.65078671  0.55384786  0.87860761     0.11700
H1222       H  0.68990723  0.50485361  0.81749647     0.09200
H1223       H  0.59619800  0.95438834  0.88193546     0.09100
C1224       C  0.61462641  0.99382833  0.60760818     0.06100
C1225       C  0.61421869  0.96622702  0.62089893    -0.10000
C1226       C  0.63920755  0.96845383  0.64371102     0.03600
C1227       C  0.66500250  0.99830205  0.65315142    -0.08600
C1228       C  0.67287014  0.52526322  0.64668181     0.06100
C1229       C  0.64760078  0.52297354  0.62419168    -0.08000
H1230       H  0.59437044  0.94295982  0.61357335     0.11700
H1231       H  0.68434221  0.99993288  0.67072544     0.09200
H1232       H  0.64818436  0.54471270  0.61594878     0.09100
C1233       C  0.49860071  0.61656422  0.62535707     0.06100
C1234       C  0.52899447  0.64222003  0.63639025    -0.10000
C1235       C  0.53098274  0.66820830  0.65637036     0.03600
C1236       C  0.50292795  0.66861072  0.66526264    -0.08600
C1237       C  0.97304737  0.63967175  0.64224920     0.06100
C1238       C  0.97536376  0.61846353  0.61745285    -0.08000
H1239       H  0.55097033  0.64250003  0.62950699     0.11700
H1240       H  0.50434898  0.68854637  0.68068970     0.09200
H1241       H  0.95360325  0.59840054  0.60650583     0.09100
C1242       C  0.00416289  0.62205708  0.89157294     0.06100
C1243       C  0.97364588  0.61579301  0.87794798    -0.10000
C1244       C  0.97115676  0.63779128  0.85421184     0.03600
C1245       C  0.99882305  0.66582232  0.84424058    -0.08600
C1246       C  0.52526874  0.67338866  0.85139101     0.06100
C1247       C  0.52754105  0.65120507  0.87442642    -0.08000
H1248       H  0.95189781  0.59449226  0.88594170     0.11700
H1249       H  0.99700236  0.68273917  0.82583447     0.09200
H1250       H  0.55104100  0.65582438  0.88370459     0.09100
Fe1251     Fe  0.49813211  0.96429520  0.49470266     1.65800
Fe1252     Fe  0.54251882  0.54357532  0.49612229     1.73200
Fe1253     Fe  0.95353720  0.99854525  0.01031643     1.54400
O1254       O  0.93471240  0.96888363  0.96464036    -0.78700
O1255       O  0.53554853  0.56340373  0.54331768    -0.77000
O1256       O  0.96331258  0.94441071  0.95801992    -0.81200
O1257       O  0.97838032  0.94578453  0.54084464    -0.76100
O1258       O  0.96518559  0.52688311  0.96531278    -0.77800
O1259       O  0.57048520  0.53150493  0.52825134    -0.80600
C1260       C  0.95193273  0.94259965  0.55203052     1.00200
C1261       C  0.93963955  0.94821888  0.94919826     1.07600
O1262       O  0.50437404  0.50323358  0.99767107    -1.09600
O1263       O  0.56121666  0.53954708  0.95074714    -0.72000
O1264       O  0.52693847  0.96616441  0.95525941    -0.75500
O1265       O  0.94134704  0.96051126  0.54039200    -0.76200
C1266       C  0.56605833  0.51668649  0.94362038     0.99100
O1267       O  0.53817009  0.98307083  0.53100059    -0.74100
O1268       O  0.51681231  0.56311475  0.96087437    -0.79300
C1269       C  0.51143368  0.55960471  0.56152413     1.01700
C1270       C  0.99075615  0.55033239  0.95323983     1.07600
O1271       O  0.96747079  0.52176598  0.54756429    -0.75000
C1272       C  0.55477654  0.00914608  0.54892900     1.05900
C1273       C  0.00896399  0.60047504  0.91758717    -0.13500
C1274       C  0.98668451  0.57010327  0.92433041    -0.28600
H1275       H  0.52777452  0.61138839  0.92528677     0.15600
H1276       H  0.96357819  0.55963269  0.91014091     0.16100
C1277       C  0.49381948  0.58874460  0.60252936    -0.13500
C1278       C  0.51739882  0.58395664  0.59026038    -0.28600
H1279       H  0.46942656  0.57214623  0.59338525     0.15600
H1280       H  0.96850433  0.56046164  0.59673907     0.16100
C1281       C  0.58786228  0.98991708  0.58223750    -0.13500
C1282       C  0.57994582  0.01263494  0.57626034    -0.28600
H1283       H  0.57389267  0.96713789  0.56812899     0.15600
H1284       H  0.61416165  0.53567710  0.57109277     0.16100
C1285       C  0.59857075  0.49909975  0.90875993    -0.13500
C1286       C  0.59056060  0.52158882  0.91533871    -0.28600
H1287       H  0.60977770  0.03385629  0.92109399     0.15600
H1288       H  0.60246289  0.54411078  0.90059845     0.16100
C1289       C  0.91057386  0.89879490  0.91083723    -0.13500
C1290       C  0.91577921  0.92783549  0.92038272    -0.28600
H1291       H  0.92621736  0.89080718  0.92286686     0.15600
H1292       H  0.90065949  0.93651196  0.90876835     0.16100
C1293       C  0.90336361  0.90991940  0.59087084    -0.13500
C1294       C  0.93264218  0.91638204  0.57900056    -0.28600
H1295       H  0.89446303  0.92543916  0.58134155     0.15600
H1296       H  0.94266806  0.90183704  0.58835602     0.16100
C1297       C  0.63879916  0.94033697  0.65791682    -0.15500
C1298       C  0.64091134  0.91873517  0.67194161     0.08500
C1299       C  0.64556899  0.89553361  0.69063889     0.10400
C1300       C  0.65087553  0.87743065  0.70852614    -0.16400
C1301       C  0.64954297  0.87933345  0.79158808    -0.15500
C1302       C  0.64276164  0.89733617  0.80729759     0.08500
C1303       C  0.63653509  0.92038032  0.82387402     0.10400
C1304       C  0.63427510  0.94257118  0.83584552    -0.16400
C1305       C  0.80538076  0.86038684  0.84072407    -0.15500
C1306       C  0.78127364  0.85963661  0.82897403     0.08500
C1307       C  0.75261464  0.85609744  0.81253745     0.10400
C1308       C  0.72845881  0.85155280  0.79622699    -0.16200
C1309       C  0.80403807  0.85824331  0.66688880    -0.15500
C1310       C  0.78006573  0.85640212  0.68008193     0.08500
C1311       C  0.75193168  0.85281507  0.69721470     0.10400
C1312       C  0.72825342  0.84896021  0.71341147    -0.16400
C1313       C  0.55379675  0.70183496  0.83974532    -0.15500
C1314       C  0.57672629  0.72569043  0.82827528     0.08500
C1315       C  0.60219845  0.75340969  0.81237182     0.10400
C1316       C  0.62238582  0.77655902  0.79621722    -0.16400
C1317       C  0.62432556  0.77312301  0.71365636    -0.15500
C1318       C  0.60650385  0.74840469  0.69767958     0.08500
C1319       C  0.58352804  0.71924629  0.68080563     0.10400
C1320       C  0.56130538  0.69500758  0.66823493    -0.16400
C1321       C  0.87918200  0.64649713  0.78596035    -0.15500
C1322       C  0.89647811  0.63974401  0.80395348     0.08500
C1323       C  0.91886637  0.63406841  0.82399315     0.10400
C1324       C  0.94077817  0.63279597  0.83943505    -0.16400
C1325       C  0.94250318  0.63537976  0.65403408    -0.15500
C1326       C  0.91981797  0.63615613  0.66711487     0.08500
C1327       C  0.89642262  0.64083365  0.68523458     0.10400
C1328       C  0.87861517  0.64687254  0.70250579    -0.16400
C1329       C  0.85525764  0.72743097  0.70266174    -0.15500
C1330       C  0.86101227  0.75182692  0.68670323     0.08500
C1331       C  0.86608526  0.78082601  0.67042005     0.10400
C1332       C  0.86764854  0.80510392  0.65878873    -0.16400
C1333       C  0.86268816  0.80075343  0.83326887    -0.15500
C1334       C  0.86203405  0.77763902  0.81980375     0.08500
C1335       C  0.85914390  0.75023437  0.80225543     0.10400
C1336       C  0.85494027  0.72685125  0.78554431    -0.16400
C1337       C  0.69964968  0.56217816  0.83367702    -0.15500
C1338       C  0.72353446  0.58419034  0.82061815     0.08500
C1339       C  0.75207657  0.60713006  0.80299875     0.10400
C1340       C  0.77617107  0.62482803  0.78611113    -0.16400
C1341       C  0.69937613  0.55567242  0.65834489    -0.15500
C1342       C  0.72288635  0.57895488  0.67055722     0.08500
C1343       C  0.75118516  0.60387702  0.68714326     0.10400
C1344       C  0.77536059  0.62324757  0.70320160    -0.16400
loop_ 
_geom_bond_atom_site_label_1 
_geom_bond_atom_site_label_2 
_geom_bond_distance 
_geom_bond_site_symmetry_2 
_ccdc_geom_bond_type 
C1            H2   1.111       .  S
C1            C7   1.542       .  S
C1            C6   1.543       .  S
C1            C5   1.543       .  S
C3            H4   1.112       .  S
C3            C9   1.537       .  S
C3            C8   1.537       .  S
C3           C10   1.538       .  S
C5            C8   1.370       .  D
C5          C153   1.455       .  S
C6            C9   1.371       .  D
C6          C168   1.447       .  S
C7           C10   1.371       .  D
C7          C152   1.460       .  S
C8          C160   1.449       .  S
C9          C164   1.459       .  S
C10         C145   1.446       .  S
C11          H12   1.112       .  S
C11          C17   1.538       .  S
C11          C16   1.538       .  S
C11          C15   1.537       .  S
C13          H14   1.112       .  S
C13          C19   1.540       .  S
C13          C18   1.538       .  S
C13          C20   1.540       .  S
C15          C18   1.370       .  D
C15         C141   1.451       .  S
C16          C19   1.370       .  D
C16         C136   1.450       .  S
C17          C20   1.371       .  D
C17         C124   1.450       .  S
C18         C140   1.447       .  S
C19         C132   1.453       .  S
C20         C125   1.452       .  S
C21          C22   1.411       .  A
C21          C26   1.418       .  A
C21         C117   1.499       .  S
C22          C23   1.401       .  A
C22          H27   1.084       .  S
C23          C24   1.396       .  A
C23         C133   1.445       .  S
C24          C25   1.398       .  A
C24          H28   1.085       .  S
C25          C26   1.408       .  A
C25         C156   1.449       .  S
C26          H29   1.080       .  S
C30          C31   1.419       .  A
C30          C35   1.410       .  A
C30         C113   1.501       .  S
C31          C32   1.406       .  A
C31          H36   1.079       .  S
C32          C33   1.397       .  A
C32         C129   1.448       .  S
C33          C34   1.397       .  A
C33          H37   1.085       .  S
C34          C35   1.403       .  A
C34         C157   1.444       .  S
C35          H38   1.084       .  S
C39          C40   1.422       .  A
C39         C380   1.410   1_545  A
C39         C109   1.503   1_545  S
C40          C41   1.414       .  A
C40          H45   1.081       .  S
C41          C42   1.399       .  A
C41         C161   1.453       .  S
C42         C379   1.396   1_545  A
C42          H46   1.085       .  S
C43          C44   1.407       .  A
C43         C378   1.395       .  A
C43         C128   1.446       .  S
C44         C375   1.418       .  A
C44          H47   1.082       .  S
C48          C49   1.418       .  A
C48         C389   1.405       .  A
C48         C105   1.490       .  S
C49          C50   1.407       .  A
C49          H54   1.082       .  S
C50          C51   1.396       .  A
C50         C121   1.445       .  S
C51         C388   1.395       .  A
C51          H55   1.085       .  S
C52          C53   1.403       .  A
C52         C387   1.397   1_545  A
C52         C165   1.442       .  S
C53         C384   1.414   1_545  A
C53          H56   1.082       .  S
C57          C58   1.412       .  A
C57         C734   1.412   1_455  A
C57         C101   1.494       .  S
C58          C59   1.405       .  A
C58          H63   1.084       .  S
C59          C60   1.398       .  A
C59         C144   1.446       .  S
C60         C733   1.398   1_455  A
C60          H64   1.085       .  S
C61          C62   1.413       .  A
C61         C732   1.399       .  A
C61         C149   1.454       .  S
C62         C729   1.420       .  A
C62          H65   1.082       .  S
C66          C67   1.415       .  A
C66         C743   1.406       .  A
C66          C97   1.490       .  S
C67          C68   1.405       .  A
C67          H72   1.080       .  S
C68          C69   1.397       .  A
C68         C148   1.441       .  S
C69         C742   1.395       .  A
C69          H73   1.085       .  S
C70          C71   1.402       .  A
C70         C741   1.398       .  A
C70         C137   1.442       .  S
C71         C738   1.409       .  A
C71          H74   1.084       .  S
Fe75         O91   2.051   1_655  S
Fe75        O753   2.075       .  S
Fe75        O256   2.069   1_654  S
Fe75        O920   2.052   1_554  S
Fe75        O590   1.964       .  S
Fe76         O79   2.075       .  S
Fe76         O83   2.057       .  S
Fe76        O255   2.070   1_554  S
Fe76        O260   2.059   1_554  S
Fe76        O254   1.974   1_455  S
Fe77         O78   2.071       .  S
Fe77        O599   2.085       .  S
Fe77        O418   2.068       .  S
Fe77        O257   2.077       .  S
Fe77       O1094   1.980       .  S
O78          C85   1.273       .  A
O79          C93   1.269   1_455  A
O80        Fe915   2.090       .  S
O80          C85   1.277       .  A
O81        Fe747   2.083   1_554  S
O81          C84   1.271       .  A
O82        Fe413   2.077   1_545  S
O82          C94   1.269       .  A
O83         C432   1.270       .  A
C84         C118   1.487       .  S
C84          O89   1.270       .  A
C85         C114   1.485       .  S
O86        Fe579   1.967   1_545  S
O86        Fe244   1.965       .  S
O86       Fe1085   1.965   1_455  S
O87        Fe244   2.078       .  S
O87          C90   1.269       .  A
O88        Fe243   2.052   1_455  S
O88         C426   1.265       .  A
O89        Fe245   2.067   1_554  S
C90         C110   1.493       .  S
C90         O424   1.272   1_545  A
O91          C96   1.268       .  A
O92        Fe244   2.047       .  S
O92         C766   1.267   1_455  A
C93         C102   1.484       .  S
C93         O767   1.268       .  A
C94          C98   1.479       .  S
C94         O764   1.270       .  A
O95        Fe581   2.064   1_544  S
O95         C765   1.271       .  A
C96         C106   1.480       .  S
C96         O419   1.279       .  A
C97          C98   1.345       .  D
C97         H771   1.087       .  S
C98         H100   1.083       .  S
H99         C769   1.086       .  S
C101        C102   1.352   1_455  D
C101        H103   1.086       .  S
C102        H776   1.083       .  S
H104        C774   1.086       .  S
C105        C106   1.343       .  D
C105        H107   1.087       .  S
C106        H444   1.085       .  S
H108        C442   1.085       .  S
C109        C110   1.350   1_565  D
C109        H447   1.087       .  S
C110        H112   1.083       .  S
H111        C445   1.087       .  S
C113        C114   1.348       .  D
C113        H115   1.086       .  S
C114        H116   1.082       .  S
C117        C118   1.350       .  D
C117        H119   1.087       .  S
C118        H120   1.083       .  S
C121        C122   1.209       .  T
C122        C123   1.417       .  S
C123        C124   1.209       .  T
C125        C126   1.210       .  T
C126        C127   1.419       .  S
C127        C128   1.210       .  T
C129        C130   1.210       .  T
C130        C131   1.419       .  S
C131        C132   1.210       .  T
C133        C134   1.208       .  T
C134        C135   1.416       .  S
C135        C136   1.208       .  T
C137        C138   1.207       .  T
C138        C139   1.413       .  S
C139        C140   1.207       .  T
C141        C142   1.209       .  T
C142        C143   1.418       .  S
C143        C144   1.209       .  T
C145        C146   1.206       .  T
C146        C147   1.412       .  S
C147        C148   1.206       .  T
C149        C150   1.215       .  T
C150        C151   1.426       .  S
C151        C152   1.215       .  T
C153        C154   1.211       .  T
C154        C155   1.421       .  S
C155        C156   1.211       .  T
C157        C158   1.208       .  T
C158        C159   1.415       .  S
C159        C160   1.208       .  T
C161        C162   1.214       .  T
C162        C163   1.425       .  S
C163        C164   1.214       .  T
C165        C166   1.207       .  T
C166        C167   1.414       .  S
C167        C168   1.207       .  T
C169        H170   1.112       .  S
C169        C175   1.538       .  S
C169        C174   1.537       .  S
C169        C173   1.539       .  S
C171        H172   1.112       .  S
C171        C177   1.539       .  S
C171        C176   1.538       .  S
C171        C178   1.539       .  S
C173        C176   1.370       .  D
C173        C321   1.456       .  S
C174        C177   1.370       .  D
C174        C336   1.447       .  S
C175        C178   1.370       .  D
C175        C320   1.447       .  S
C176        C328   1.445       .  S
C177        C332   1.452       .  S
C178        C313   1.453       .  S
C179        H180   1.112       .  S
C179        C185   1.533       .  S
C179        C184   1.533       .  S
C179        C183   1.534       .  S
C181        H182   1.112       .  S
C181        C187   1.536       .  S
C181        C186   1.533       .  S
C181        C188   1.536       .  S
C183        C186   1.368       .  D
C183        C309   1.440       .  S
C184        C187   1.369       .  D
C184        C304   1.452       .  S
C185        C188   1.369       .  D
C185        C292   1.442       .  S
C186        C308   1.446       .  S
C187        C300   1.438       .  S
C188        C293   1.448       .  S
C189        C190   1.412       .  A
C189        C194   1.420       .  A
C189        C285   1.504       .  S
C190        C191   1.403       .  A
C190        H195   1.084       .  S
C191        C192   1.396       .  A
C191        C301   1.447       .  S
C192        C193   1.398       .  A
C192        H196   1.085       .  S
C193        C194   1.411       .  A
C193        C324   1.451       .  S
C194        H197   1.080       .  S
C198        C199   1.401       .  A
C198        C203   1.412       .  A
C198        C281   1.480       .  S
C199        C200   1.393       .  A
C199        H204   1.085       .  S
C200        C201   1.395       .  A
C200        C297   1.433       .  S
C201        C202   1.399       .  A
C201        H205   1.085       .  S
C202        C203   1.405       .  A
C202        C325   1.440       .  S
C203        H206   1.082       .  S
C207        C208   1.418       .  A
C207        C548   1.409   1_545  A
C207        C277   1.496   1_545  S
C208        C209   1.408       .  A
C208        H213   1.081       .  S
C209        C210   1.398       .  A
C209        C329   1.446       .  S
C210        C547   1.395   1_545  A
C210        H214   1.085       .  S
C211        C546   1.396       .  A
C211        C212   1.403       .  A
C211        C296   1.442       .  S
C212        C543   1.417       .  A
C212        H215   1.080       .  S
C216        C217   1.406       .  A
C216        C557   1.417       .  A
C216        C273   1.491       .  S
C217        C218   1.399       .  A
C217        H222   1.084       .  S
C218        C219   1.395       .  A
C218        C289   1.437       .  S
C219        C556   1.396       .  A
C219        H223   1.085       .  S
C220        C555   1.397       .  A
C220        C221   1.404       .  A
C220        C333   1.442       .  S
C221        C552   1.414       .  A
C221        H224   1.082       .  S
C225        C226   1.405       .  A
C225        C902   1.412   1_455  A
C225        C269   1.483       .  S
C226        C227   1.398       .  A
C226        H231   1.085       .  S
C227        C228   1.396       .  A
C227        C312   1.435       .  S
C228        C901   1.397   1_455  A
C228        H232   1.085       .  S
C229        C900   1.397       .  A
C229        C230   1.405       .  A
C229        C317   1.441       .  S
C230        C897   1.414       .  A
C230        H233   1.082       .  S
C234        C235   1.419       .  A
C234        C911   1.408       .  A
C234        C265   1.497       .  S
C235        C236   1.409       .  A
C235        H240   1.081       .  S
C236        C237   1.398       .  A
C236        C316   1.448       .  S
C237        C910   1.395       .  A
C237        H241   1.085       .  S
C238        C909   1.395   1_455  A
C238        C239   1.399       .  A
C238        C305   1.441       .  S
C239        C906   1.409   1_455  A
C239        H242   1.084       .  S
Fe243       O259   2.102   1_655  S
Fe243       O921   2.056       .  S
Fe243       O752   2.106       .  S
Fe243       O422   1.953       .  S
Fe244       O247   2.078       .  S
Fe244       O251   2.043       .  S
Fe245       O431   2.075   1_556  S
Fe245       O586   2.072       .  S
Fe245       O246   2.074       .  S
Fe245      O1262   1.966       .  S
O246        C253   1.274       .  A
O247        C261   1.271   1_455  A
O248       Fe747   2.055       .  S
O248        C253   1.266       .  A
O249       Fe915   2.081       .  S
O249        C252   1.270       .  A
O250       Fe581   2.072   1_545  S
O250        C262   1.268       .  A
O251        C600   1.266       .  A
C252        C286   1.492       .  S
C252        O257   1.270       .  A
C253        C282   1.476       .  S
O254       Fe411   1.981   1_644  S
O254      Fe1253   1.972   1_545  S
O255        C258   1.267       .  A
O256        C594   1.268       .  A
C258        C278   1.484       .  S
C258        O592   1.270   1_545  A
O259        C264   1.279       .  A
O260        C934   1.271   1_455  A
C261        C270   1.475       .  S
C261        O935   1.265       .  A
C262        C266   1.485       .  S
C262        O932   1.272       .  A
O263       Fe413   2.049   1_545  S
O263        C933   1.265       .  A
C264        C274   1.481       .  S
C264        O587   1.269       .  A
C265        C266   1.347       .  D
C265        H939   1.087       .  S
C266        H268   1.083       .  S
H267        C937   1.088       .  S
C269        C270   1.345   1_455  D
C269        H271   1.088       .  S
C270        H944   1.086       .  S
H272        C942   1.086       .  S
C273        C274   1.344       .  D
C273        H275   1.087       .  S
C274        H612   1.085       .  S
H276        C610   1.085       .  S
C277        C278   1.348   1_565  D
C277        H615   1.087       .  S
C278        H280   1.083       .  S
H279        C613   1.087       .  S
C281        C282   1.342       .  D
C281        H283   1.088       .  S
C282        H284   1.086       .  S
C285        C286   1.352       .  D
C285        H287   1.087       .  S
C286        H288   1.083       .  S
C289        C290   1.203       .  T
C290        C291   1.408       .  S
C291        C292   1.203       .  T
C293        C294   1.207       .  T
C294        C295   1.414       .  S
C295        C296   1.207       .  T
C297        C298   1.201       .  T
C298        C299   1.404       .  S
C299        C300   1.201       .  T
C301        C302   1.210       .  T
C302        C303   1.418       .  S
C303        C304   1.209       .  T
C305        C306   1.206       .  T
C306        C307   1.412       .  S
C307        C308   1.206       .  T
C309        C310   1.202       .  T
C310        C311   1.406       .  S
C311        C312   1.202       .  T
C313        C314   1.210       .  T
C314        C315   1.420       .  S
C315        C316   1.211       .  T
C317        C318   1.207       .  T
C318        C319   1.413       .  S
C319        C320   1.207       .  T
C321        C322   1.212       .  T
C322        C323   1.423       .  S
C323        C324   1.212       .  T
C325        C326   1.206       .  T
C326        C327   1.412       .  S
C327        C328   1.206       .  T
C329        C330   1.210       .  T
C330        C331   1.418       .  S
C331        C332   1.210       .  T
C333        C334   1.207       .  T
C334        C335   1.414       .  S
C335        C336   1.207       .  T
C337        H338   1.112       .  S
C337        C343   1.533       .  S
C337        C342   1.535       .  S
C337        C341   1.534       .  S
C339        H340   1.112       .  S
C339        C345   1.529       .  S
C339        C344   1.530       .  S
C339        C346   1.532       .  S
C341        C344   1.368       .  D
C341        C489   1.444       .  S
C342        C345   1.369       .  D
C342        C504   1.439       .  S
C343        C346   1.368       .  D
C343        C488   1.444       .  S
C344        C496   1.440       .  S
C345        C500   1.443       .  S
C346        C481   1.438       .  S
C347        H348   1.112       .  S
C347        C353   1.534       .  S
C347        C352   1.535       .  S
C347        C351   1.533       .  S
C349        H350   1.111       .  S
C349        C355   1.537       .  S
C349        C354   1.541       .  S
C349        C356   1.540       .  S
C351        C354   1.369       .  D
C351        C477   1.455       .  S
C352        C355   1.368       .  D
C352        C472   1.438       .  S
C353        C356   1.370       .  D
C353        C460   1.444       .  S
C354        C476   1.442       .  S
C355        C468   1.454       .  S
C356        C461   1.450       .  S
C357        C358   1.402       .  A
C357        C362   1.411       .  A
C357        C453   1.481       .  S
C358        C359   1.396       .  A
C358        H363   1.085       .  S
C359        C360   1.397       .  A
C359        C469   1.433       .  S
C360        C361   1.398       .  A
C360        H364   1.085       .  S
C361        C362   1.402       .  A
C361        C492   1.439       .  S
C362        H365   1.083       .  S
C366        C367   1.418       .  A
C366        C371   1.402       .  A
C366        C449   1.490       .  S
C367        C368   1.407       .  A
C367        H372   1.082       .  S
C368        C369   1.399       .  A
C368        C465   1.448       .  S
C369        C370   1.397       .  A
C369        H373   1.085       .  S
C370        C371   1.396       .  A
C370        C493   1.435       .  S
C371        H374   1.085       .  S
C375        C376   1.407       .  A
C375        C445   1.493       .  S
C376        C377   1.400       .  A
C376        H381   1.084       .  S
C377        C378   1.395       .  A
C377        C497   1.438       .  S
C378        H382   1.085       .  S
C379        C380   1.400       .  A
C379        C464   1.445       .  S
C380        H383   1.084       .  S
C384        C385   1.406       .  A
C384        C441   1.489       .  S
C385        C386   1.400       .  A
C385        H390   1.084       .  S
C386        C387   1.397       .  A
C386        C457   1.439       .  S
C387        H391   1.085   1_565  S
C388        C389   1.397       .  A
C388        C501   1.434       .  S
C389        H392   1.085       .  S
C393        C394   1.418   1_655  A
C393       C1070   1.407       .  A
C393        C437   1.496       .  S
C394        C395   1.410       .  A
C394        H399   1.082       .  S
C395        C396   1.399   1_455  A
C395        C480   1.448       .  S
C396       C1069   1.396       .  A
C396        H400   1.085   1_655  S
C397       C1068   1.396       .  A
C397        C398   1.402       .  A
C397        C485   1.439       .  S
C398       C1065   1.414       .  A
C398        H401   1.080       .  S
C402        C403   1.410       .  A
C402       C1079   1.406       .  A
C402        C433   1.482       .  S
C403        C404   1.399       .  A
C403        H408   1.080       .  S
C404        C405   1.396       .  A
C404        C484   1.433       .  S
C405       C1078   1.394       .  A
C405        H409   1.085       .  S
C406       C1077   1.395   1_455  A
C406        C407   1.398       .  A
C406        C473   1.437       .  S
C407       C1074   1.406   1_455  A
C407        H410   1.084       .  S
Fe411       O427   2.088   1_556  S
Fe411      O1089   2.065   1_456  S
Fe411       O592   2.071       .  S
Fe411      O1256   2.099   1_455  S
Fe412       O415   2.065       .  S
Fe412       O419   2.100       .  S
Fe412       O591   2.067   1_554  S
Fe412       O596   2.109   1_554  S
Fe412       O590   1.968   1_455  S
Fe413       O593   2.077       .  S
Fe413       O414   2.041       .  S
Fe413       O758   1.965   1_565  S
O414        C421   1.264       .  A
O415        C429   1.267       .  A
O416      Fe1251   2.107       .  S
O416        C421   1.279       .  A
O417      Fe1083   2.046       .  S
O417        C420   1.264       .  A
O418        C430   1.267       .  A
C420        C454   1.473       .  S
C420        O425   1.272       .  A
C421        C450   1.477       .  S
O422       Fe580   1.955   1_655  S
O422       Fe749   1.949       .  S
O423       Fe580   2.103       .  S
O423        C426   1.276       .  A
O424       Fe579   2.082       .  S
O425       Fe581   2.082   1_554  S
C426        C446   1.482       .  S
O427        C432   1.276   1_565  A
O428       Fe580   2.063       .  S
O428       C1102   1.271   1_455  A
C429        C438   1.487       .  S
C429       O1103   1.273   1_455  A
C430        C434   1.474       .  S
C430       O1100   1.266       .  A
O431       C1101   1.270       .  A
C432        C442   1.478       .  S
C433        C434   1.347       .  D
C433       H1107   1.086       .  S
C434        H436   1.082       .  S
H435       C1105   1.086       .  S
C437        C438   1.347   1_655  D
C437        H439   1.087       .  S
C438       H1112   1.084       .  S
H440       C1110   1.081       .  S
C441        C442   1.346   1_565  D
C441        H443   1.087       .  S
C445        C446   1.345       .  D
C446        H448   1.085       .  S
C449        C450   1.341       .  D
C449        H451   1.088       .  S
C450        H452   1.086       .  S
C453        C454   1.342       .  D
C453        H455   1.088       .  S
C454        H456   1.086       .  S
C457        C458   1.205       .  T
C458        C459   1.410       .  S
C459        C460   1.205       .  T
C461        C462   1.209       .  T
C462        C463   1.417       .  S
C463        C464   1.209       .  T
C465        C466   1.211       .  T
C466        C467   1.420       .  S
C467        C468   1.211       .  T
C469        C470   1.201       .  T
C470        C471   1.404       .  S
C471        C472   1.201       .  T
C473        C474   1.204       .  T
C474        C475   1.408       .  S
C475        C476   1.203       .  T
C477        C478   1.211       .  T
C478        C479   1.420       .  S
C479        C480   1.211       .  T
C481        C482   1.201       .  T
C482        C483   1.405       .  S
C483        C484   1.201       .  T
C485        C486   1.205       .  T
C486        C487   1.411       .  S
C487        C488   1.205       .  T
C489        C490   1.204       .  T
C490        C491   1.410       .  S
C491        C492   1.205       .  T
C493        C494   1.202       .  T
C494        C495   1.406       .  S
C495        C496   1.202       .  T
C497        C498   1.204       .  T
C498        C499   1.409       .  S
C499        C500   1.204       .  T
C501        C502   1.202       .  T
C502        C503   1.406       .  S
C503        C504   1.202       .  T
C505        H506   1.112       .  S
C505        C511   1.536       .  S
C505        C510   1.536       .  S
C505        C509   1.535       .  S
C507        H508   1.112       .  S
C507        C513   1.537       .  S
C507        C512   1.537       .  S
C507        C514   1.536       .  S
C509        C512   1.369       .  D
C509        C657   1.448       .  S
C510        C513   1.370       .  D
C510        C672   1.451       .  S
C511        C514   1.370       .  D
C511        C656   1.438       .  S
C512        C664   1.446       .  S
C513        C668   1.444       .  S
C514        C649   1.455       .  S
C515        H516   1.112       .  S
C515        C521   1.530       .  S
C515        C520   1.529       .  S
C515        C519   1.531       .  S
C517        H518   1.112       .  S
C517        C523   1.533       .  S
C517        C522   1.532       .  S
C517        C524   1.532       .  S
C519        C522   1.369       .  D
C519        C645   1.439       .  S
C520        C523   1.367       .  D
C520        C640   1.444       .  S
C521        C524   1.368       .  D
C521        C628   1.435       .  S
C522        C644   1.440       .  S
C523        C636   1.434       .  S
C524        C629   1.445       .  S
C525        C526   1.407       .  A
C525        C530   1.415       .  A
C525        C621   1.490       .  S
C526        C527   1.399       .  A
C526        H531   1.084       .  S
C527        C528   1.395       .  A
C527        C637   1.439       .  S
C528        C529   1.398       .  A
C528        H532   1.085       .  S
C529        C530   1.405       .  A
C529        C660   1.442       .  S
C530        H533   1.082       .  S
C534        C535   1.400       .  A
C534        C539   1.414       .  A
C534        C617   1.481       .  S
C535        C536   1.393       .  A
C535        H540   1.085       .  S
C536        C537   1.395       .  A
C536        C633   1.430       .  S
C537        C538   1.398       .  A
C537        H541   1.085       .  S
C538        C539   1.405       .  A
C538        C661   1.441       .  S
C539        H542   1.082       .  S
C543        C544   1.409       .  A
C543        C613   1.494       .  S
C544        C545   1.401       .  A
C544        H549   1.084       .  S
C545        C546   1.395       .  A
C545        C665   1.439       .  S
C546        H550   1.085       .  S
C547        C548   1.399       .  A
C547        C632   1.440       .  S
C548        H551   1.084       .  S
C552        C553   1.400   1_545  A
C552        C609   1.482   1_545  S
C553        C554   1.394       .  A
C553        H558   1.085       .  S
C554        C555   1.396   1_565  A
C554        C625   1.430       .  S
C555        H559   1.085       .  S
C556        C557   1.406       .  A
C556        C669   1.445       .  S
C557        H560   1.082       .  S
C561        C562   1.404       .  A
C561       C1238   1.415   1_455  A
C561        C605   1.485       .  S
C562        C563   1.398       .  A
C562        H567   1.085       .  S
C563        C564   1.395       .  A
C563        C648   1.434       .  S
C564       C1237   1.396   1_455  A
C564        H568   1.085   1_455  S
C565       C1236   1.394       .  A
C565        C566   1.394       .  A
C565        C653   1.433       .  S
C566       C1233   1.403       .  A
C566        H569   1.085       .  S
C570        C571   1.418       .  A
C570       C1247   1.407       .  A
C570        C601   1.494       .  S
C571        C572   1.411       .  A
C571        H576   1.082       .  S
C572        C573   1.400       .  A
C572        C652   1.449       .  S
C573       C1246   1.396       .  A
C573        H577   1.085       .  S
C574       C1245   1.394   1_455  A
C574        C575   1.398       .  A
C574        C641   1.436       .  S
C575       C1242   1.406       .  A
C575        H578   1.084       .  S
Fe579       O595   2.088       .  S
Fe579      O1257   2.077   1_455  S
Fe579      O1088   2.095   1_455  S
Fe580       O583   2.104       .  S
Fe580       O587   2.052       .  S
Fe581       O582   2.063       .  S
Fe581       O926   1.961       .  S
O582        C589   1.271       .  A
O583        C597   1.277   1_455  A
O584      Fe1083   2.064   1_556  S
O584        C589   1.266       .  A
O585      Fe1251   2.062       .  S
O585        C588   1.267       .  A
O586        C598   1.270       .  A
C588        C622   1.481       .  S
C588        O593   1.271       .  A
C589        C618   1.473       .  S
O590       Fe917   1.962       .  S
O591        C594   1.270       .  A
C594        C614   1.478       .  S
O595        C600   1.277   1_565  A
O596       C1270   1.280   1_455  A
C597        C606   1.477       .  S
C597       O1271   1.266       .  A
C598        C602   1.488       .  S
C598       O1268   1.274       .  A
O599       C1269   1.275       .  A
C600        C610   1.472       .  S
C601        C602   1.348       .  D
C601       H1275   1.087       .  S
C602        H604   1.084       .  S
H603       C1273   1.087       .  S
C605        C606   1.343   1_455  D
C605        H607   1.087       .  S
C606       H1280   1.086       .  S
H608       C1278   1.083       .  S
C609        C610   1.340   1_565  D
C609        H611   1.087       .  S
C613        C614   1.347       .  D
C614        H616   1.082       .  S
C617        C618   1.340       .  D
C617        H619   1.087       .  S
C618        H620   1.084       .  S
C621        C622   1.347       .  D
C621        H623   1.087       .  S
C622        H624   1.084       .  S
C625        C626   1.199       .  T
C626        C627   1.401       .  S
C627        C628   1.199       .  T
C629        C630   1.205       .  T
C630        C631   1.412       .  S
C631        C632   1.206       .  T
C633        C634   1.199       .  T
C634        C635   1.401       .  S
C635        C636   1.199       .  T
C637        C638   1.205       .  T
C638        C639   1.410       .  S
C639        C640   1.205       .  T
C641        C642   1.203       .  T
C642        C643   1.407       .  S
C643        C644   1.203       .  T
C645        C646   1.202       .  T
C646        C647   1.406       .  S
C647        C648   1.202       .  T
C649        C650   1.212       .  T
C650        C651   1.421       .  S
C651        C652   1.212       .  T
C653        C654   1.201       .  T
C654        C655   1.404       .  S
C655        C656   1.201       .  T
C657        C658   1.207       .  T
C658        C659   1.414       .  S
C659        C660   1.207       .  T
C661        C662   1.206       .  T
C662        C663   1.413       .  S
C663        C664   1.206       .  T
C665        C666   1.205       .  T
C666        C667   1.410       .  S
C667        C668   1.205       .  T
C669        C670   1.209       .  T
C670        C671   1.417       .  S
C671        C672   1.209       .  T
C673        H674   1.112       .  S
C673        C679   1.533       .  S
C673        C678   1.535       .  S
C673        C677   1.534       .  S
C675        H676   1.112       .  S
C675        C681   1.534       .  S
C675        C680   1.532       .  S
C675        C682   1.535       .  S
C677        C680   1.368       .  D
C677        C825   1.443       .  S
C678        C681   1.369       .  D
C678        C840   1.440       .  S
C679        C682   1.369       .  D
C679        C824   1.448       .  S
C680        C832   1.440       .  S
C681        C836   1.450       .  S
C682        C817   1.441       .  S
C683        H684   1.112       .  S
C683        C689   1.534       .  S
C683        C688   1.536       .  S
C683        C687   1.535       .  S
C685        H686   1.112       .  S
C685        C691   1.535       .  S
C685        C690   1.534       .  S
C685        C692   1.535       .  S
C687        C690   1.369       .  D
C687        C813   1.448       .  S
C688        C691   1.370       .  D
C688        C808   1.441       .  S
C689        C692   1.369       .  D
C689        C796   1.445       .  S
C690        C812   1.441       .  S
C691        C804   1.450       .  S
C692        C797   1.445       .  S
C693        C694   1.411       .  A
C693        C698   1.407       .  A
C693        C789   1.484       .  S
C694        C695   1.400       .  A
C694        H699   1.082       .  S
C695        C696   1.395       .  A
C695        C805   1.436       .  S
C696        C697   1.396       .  A
C696        H700   1.085       .  S
C697        C698   1.401       .  A
C697        C828   1.437       .  S
C698        H701   1.084       .  S
C702        C703   1.417       .  A
C702        C707   1.404       .  A
C702        C785   1.490       .  S
C703        C704   1.404       .  A
C703        H708   1.081       .  S
C704        C705   1.397       .  A
C704        C801   1.445       .  S
C705        C706   1.396       .  A
C705        H709   1.085       .  S
C706        C707   1.398       .  A
C706        C829   1.435       .  S
C707        H710   1.084       .  S
C711        C712   1.418   1_565  A
C711       C1052   1.409       .  A
C711        C781   1.495       .  S
C712        C713   1.407       .  A
C712        H717   1.080       .  S
C713        C714   1.395   1_545  A
C713        C833   1.443       .  S
C714       C1051   1.393       .  A
C714        H718   1.086       .  S
C715       C1050   1.397       .  A
C715        C716   1.401       .  A
C715        C800   1.440       .  S
C716       C1047   1.407       .  A
C716        H719   1.084       .  S
C720        C721   1.409       .  A
C720       C1061   1.410       .  A
C720        C777   1.488       .  S
C721        C722   1.401       .  A
C721        H726   1.084       .  S
C722        C723   1.396       .  A
C722        C793   1.440       .  S
C723       C1060   1.396       .  A
C723        H727   1.085       .  S
C724       C1059   1.396   1_545  A
C724        C725   1.400       .  A
C724        C837   1.435       .  S
C725       C1056   1.411   1_545  A
C725        H728   1.081       .  S
C729        C730   1.408       .  A
C729        C773   1.498       .  S
C730        C731   1.400       .  A
C730        H735   1.085       .  S
C731        C732   1.397       .  A
C731        C816   1.443       .  S
C732        H736   1.085       .  S
C733        C734   1.402       .  A
C733        C821   1.442       .  S
C734        H737   1.082       .  S
C738        C739   1.409   1_455  A
C738        C769   1.488       .  S
C739        C740   1.398       .  A
C739        H744   1.081       .  S
C740        C741   1.398   1_655  A
C740        C820   1.437       .  S
C741        H745   1.085       .  S
C742        C743   1.398       .  A
C742        C809   1.436       .  S
C743        H746   1.084       .  S
Fe747       O763   2.047   1_556  S
Fe747       O928   2.076       .  S
Fe747      O1262   1.968       .  S
Fe748       O751   2.110   1_556  S
Fe748       O755   2.070   1_556  S
Fe748       O927   2.121       .  S
Fe748       O932   2.075       .  S
Fe748       O926   1.968   1_545  S
Fe749      O1271   2.045       .  S
Fe749      O1090   2.077       .  S
Fe749       O929   2.079       .  S
Fe749       O750   2.040       .  S
O750        C757   1.265       .  A
O751        C765   1.281       .  A
O752        C757   1.279       .  A
O753        C756   1.271       .  A
O754      Fe1085   2.089       .  S
O754        C766   1.273       .  A
O755       C1104   1.268       .  A
C756        C790   1.476       .  S
C756        O761   1.267       .  A
C757        C786   1.475       .  S
O758      Fe1251   1.966   1_545  S
O758       Fe916   1.961       .  S
O759       Fe916   2.079       .  S
O759        C762   1.270       .  A
O760       Fe915   2.091       .  S
O760       C1098   1.271       .  A
O761       Fe917   2.057       .  S
C762        C782   1.483       .  S
C762       O1096   1.270   1_545  A
O763        C768   1.268       .  A
O764       Fe916   2.064       .  S
C765        C774   1.490       .  S
C766        C770   1.476       .  S
O767      Fe1253   2.068   1_545  S
C768        C778   1.476       .  S
C768       O1091   1.273       .  A
C769        C770   1.349   1_455  D
C770        H772   1.083       .  S
C773        C774   1.347       .  D
C773        H775   1.087       .  S
C777        C778   1.350       .  D
C777        H779   1.087       .  S
C778       H1116   1.082       .  S
H780       C1114   1.083       .  S
C781        C782   1.348   1_565  D
C781       H1119   1.087       .  S
C782        H784   1.082       .  S
H783       C1117   1.087       .  S
C785        C786   1.342       .  D
C785        H787   1.087       .  S
C786        H788   1.084       .  S
C789        C790   1.347       .  D
C789        H791   1.087       .  S
C790        H792   1.085       .  S
C793        C794   1.205       .  T
C794        C795   1.411       .  S
C795        C796   1.205       .  T
C797        C798   1.205       .  T
C798        C799   1.412       .  S
C799        C800   1.206       .  T
C801        C802   1.209       .  T
C802        C803   1.417       .  S
C803        C804   1.208       .  T
C805        C806   1.203       .  T
C806        C807   1.408       .  S
C807        C808   1.203       .  T
C809        C810   1.203       .  T
C810        C811   1.408       .  S
C811        C812   1.203       .  T
C813        C814   1.207       .  T
C814        C815   1.414       .  S
C815        C816   1.207       .  T
C817        C818   1.203       .  T
C818        C819   1.408       .  S
C819        C820   1.203       .  T
C821        C822   1.207       .  T
C822        C823   1.414       .  S
C823        C824   1.207       .  T
C825        C826   1.204       .  T
C826        C827   1.409       .  S
C827        C828   1.204       .  T
C829        C830   1.202       .  T
C830        C831   1.406       .  S
C831        C832   1.202       .  T
C833        C834   1.208       .  T
C834        C835   1.416       .  S
C835        C836   1.208       .  T
C837        C838   1.203       .  T
C838        C839   1.407       .  S
C839        C840   1.203       .  T
C841        H842   1.112       .  S
C841        C847   1.539       .  S
C841        C846   1.538       .  S
C841        C845   1.539       .  S
C843        H844   1.112       .  S
C843        C849   1.534       .  S
C843        C848   1.534       .  S
C843        C850   1.532       .  S
C845        C848   1.370       .  D
C845        C993   1.446       .  S
C846        C849   1.369       .  D
C846       C1008   1.454       .  S
C847        C850   1.369       .  D
C847        C992   1.443       .  S
C848       C1000   1.447       .  S
C849       C1004   1.440       .  S
C850        C985   1.448       .  S
C851        H852   1.112       .  S
C851        C857   1.529       .  S
C851        C856   1.530       .  S
C851        C855   1.530       .  S
C853        H854   1.112       .  S
C853        C859   1.535       .  S
C853        C858   1.535       .  S
C853        C860   1.535       .  S
C855        C858   1.368       .  D
C855        C981   1.439       .  S
C856        C859   1.368       .  D
C856        C976   1.441       .  S
C857        C860   1.368       .  D
C857        C964   1.439       .  S
C858        C980   1.444       .  S
C859        C972   1.441       .  S
C860        C965   1.442       .  S
C861        C862   1.406       .  A
C861        C866   1.414       .  A
C861        C957   1.486       .  S
C862        C863   1.398       .  A
C862        H867   1.084       .  S
C863        C864   1.395       .  A
C863        C973   1.436       .  S
C864        C865   1.397       .  A
C864        H868   1.085       .  S
C865        C866   1.404       .  A
C865        C996   1.441       .  S
C866        H869   1.082       .  S
C870        C871   1.412       .  A
C870        C875   1.412       .  A
C870        C953   1.492       .  S
C871        C872   1.400       .  A
C871        H876   1.081       .  S
C872        C873   1.395       .  A
C872        C969   1.437       .  S
C873        C874   1.395       .  A
C873        H877   1.085       .  S
C874        C875   1.403       .  A
C874        C997   1.442       .  S
C875        H878   1.084       .  S
C879        C880   1.404       .  A
C879       C1220   1.422   1_545  A
C879        C949   1.495       .  S
C880        C881   1.398       .  A
C880        H885   1.084       .  S
C881        C882   1.395       .  A
C881       C1001   1.435       .  S
C882       C1219   1.397   1_545  A
C882        H886   1.085   1_545  S
C883       C1218   1.395       .  A
C883        C884   1.396       .  A
C883        C968   1.438       .  S
C884       C1215   1.406       .  A
C884        H887   1.085       .  S
C888        C889   1.404       .  A
C888       C1229   1.419       .  A
C888        C945   1.492       .  S
C889        C890   1.396       .  A
C889        H894   1.085       .  S
C890        C891   1.396       .  A
C890        C961   1.434       .  S
C891       C1228   1.397       .  A
C891        H895   1.085       .  S
C892       C1227   1.398   1_545  A
C892        C893   1.408       .  A
C892       C1005   1.449       .  S
C893       C1224   1.418   1_545  A
C893        H896   1.082       .  S
C897        C898   1.403       .  A
C897        C941   1.482       .  S
C898        C899   1.396       .  A
C898        H903   1.085       .  S
C899        C900   1.395       .  A
C899        C984   1.434       .  S
C900        H904   1.085       .  S
C901        C902   1.401       .  A
C901        C989   1.438       .  S
C902        H905   1.082       .  S
C906        C907   1.415       .  A
C906        C937   1.491   1_655  S
C907        C908   1.405       .  A
C907        H912   1.081       .  S
C908        C909   1.398       .  A
C908        C988   1.442       .  S
C909        H913   1.085       .  S
C910        C911   1.398       .  A
C910        C977   1.440       .  S
C911        H914   1.084       .  S
Fe915       O931   2.087       .  S
Fe915      O1094   1.978       .  S
Fe916       O919   2.084       .  S
Fe916       O923   2.064       .  S
Fe917      O1103   2.088       .  S
Fe917      O1258   2.048   1_554  S
Fe917       O918   2.088   1_554  S
O918        C925   1.273       .  A
O919        C933   1.274       .  A
O920        C925   1.268       .  A
O921        C924   1.265       .  A
O922      Fe1253   2.084   1_546  S
O922        C934   1.272       .  A
O923       C1272   1.271       .  A
C924        C958   1.478       .  S
C924        O929   1.271       .  A
C925        C954   1.479       .  S
O926      Fe1083   1.965   1_556  S
O927        C930   1.282   1_545  A
O928       C1266   1.272       .  A
C930        C950   1.482       .  S
C930       O1264   1.265       .  A
O931        C936   1.277       .  A
C933        C942   1.476       .  S
C934        C938   1.482       .  S
O935      Fe1085   2.053       .  S
C936        C946   1.476       .  S
C936       O1259   1.267       .  A
C937        C938   1.348   1_455  D
C938        H940   1.084       .  S
C941        C942   1.342       .  D
C941        H943   1.087       .  S
C945        C946   1.341       .  D
C945        H947   1.088       .  S
C946       H1284   1.084       .  S
H948       C1282   1.085       .  S
C949        C950   1.342   1_545  D
C949       H1287   1.087       .  S
C950        H952   1.085       .  S
H951       C1285   1.087       .  S
C953        C954   1.350       .  D
C953        H955   1.088       .  S
C954        H956   1.084       .  S
C957        C958   1.346       .  D
C957        H959   1.087       .  S
C958        H960   1.085       .  S
C961        C962   1.202       .  T
C962        C963   1.405       .  S
C963        C964   1.202       .  T
C965        C966   1.204       .  T
C966        C967   1.409       .  S
C967        C968   1.204       .  T
C969        C970   1.204       .  T
C970        C971   1.408       .  S
C971        C972   1.203       .  T
C973        C974   1.203       .  T
C974        C975   1.408       .  S
C975        C976   1.203       .  T
C977        C978   1.205       .  T
C978        C979   1.411       .  S
C979        C980   1.205       .  T
C981        C982   1.201       .  T
C982        C983   1.405       .  S
C983        C984   1.202       .  T
C985        C986   1.207       .  T
C986        C987   1.414       .  S
C987        C988   1.207       .  T
C989        C990   1.205       .  T
C990        C991   1.410       .  S
C991        C992   1.204       .  T
C993        C994   1.206       .  T
C994        C995   1.413       .  S
C995        C996   1.206       .  T
C997        C998   1.207       .  T
C998        C999   1.414       .  S
C999       C1000   1.207       .  T
C1001      C1002   1.203       .  T
C1002      C1003   1.406       .  S
C1003      C1004   1.202       .  T
C1005      C1006   1.211       .  T
C1006      C1007   1.420       .  S
C1007      C1008   1.211       .  T
C1009      H1010   1.112       .  S
C1009      C1015   1.534       .  S
C1009      C1014   1.538       .  S
C1009      C1013   1.534       .  S
C1011      H1012   1.112       .  S
C1011      C1017   1.534       .  S
C1011      C1016   1.538       .  S
C1011      C1018   1.537       .  S
C1013      C1016   1.370       .  D
C1013      C1161   1.454       .  S
C1014      C1017   1.369       .  D
C1014      C1176   1.440       .  S
C1015      C1018   1.369       .  D
C1015      C1160   1.445       .  S
C1016      C1168   1.439       .  S
C1017      C1172   1.454       .  S
C1018      C1153   1.447       .  S
C1019      H1020   1.112       .  S
C1019      C1025   1.533       .  S
C1019      C1024   1.534       .  S
C1019      C1023   1.532       .  S
C1021      H1022   1.112       .  S
C1021      C1027   1.534       .  S
C1021      C1026   1.533       .  S
C1021      C1028   1.533       .  S
C1023      C1026   1.368       .  D
C1023      C1149   1.444       .  S
C1024      C1027   1.369       .  D
C1024      C1144   1.441       .  S
C1025      C1028   1.368       .  D
C1025      C1132   1.443       .  S
C1026      C1148   1.439       .  S
C1027      C1140   1.446       .  S
C1028      C1133   1.443       .  S
C1029      C1030   1.406       .  A
C1029      C1034   1.419       .  A
C1029      C1125   1.493       .  S
C1030      C1031   1.395       .  A
C1030      H1035   1.085       .  S
C1031      C1032   1.393       .  A
C1031      C1141   1.436       .  S
C1032      C1033   1.397       .  A
C1032      H1036   1.085       .  S
C1033      C1034   1.412       .  A
C1033      C1164   1.447       .  S
C1034      H1037   1.082       .  S
C1038      C1039   1.415       .  A
C1038      C1043   1.404       .  A
C1038      C1121   1.486       .  S
C1039      C1040   1.402       .  A
C1039      H1044   1.081       .  S
C1040      C1041   1.396       .  A
C1040      C1137   1.441       .  S
C1041      C1042   1.396       .  A
C1041      H1045   1.085       .  S
C1042      C1043   1.398       .  A
C1042      C1165   1.434       .  S
C1043      H1046   1.084       .  S
C1047      C1048   1.418       .  A
C1047      C1117   1.494       .  S
C1048      C1049   1.408       .  A
C1048      H1053   1.082       .  S
C1049      C1050   1.398       .  A
C1049      C1169   1.448       .  S
C1050      H1054   1.085       .  S
C1051      C1052   1.398       .  A
C1051      C1136   1.438       .  S
C1052      H1055   1.084       .  S
C1056      C1057   1.409       .  A
C1056      C1113   1.485       .  S
C1057      C1058   1.399       .  A
C1057      H1062   1.084       .  S
C1058      C1059   1.394       .  A
C1058      C1129   1.438       .  S
C1059      H1063   1.085       .  S
C1060      C1061   1.398       .  A
C1060      C1173   1.435       .  S
C1061      H1064   1.080       .  S
C1065      C1066   1.409       .  A
C1065      C1109   1.491       .  S
C1066      C1067   1.400       .  A
C1066      H1071   1.084       .  S
C1067      C1068   1.395       .  A
C1067      C1152   1.439       .  S
C1068      H1072   1.085       .  S
C1069      C1070   1.398       .  A
C1069      C1157   1.440       .  S
C1070      H1073   1.085       .  S
C1074      C1075   1.415       .  A
C1074      C1105   1.489   1_655  S
C1075      C1076   1.404       .  A
C1075      H1080   1.081       .  S
C1076      C1077   1.397       .  A
C1076      C1156   1.441       .  S
C1077      H1081   1.085       .  S
C1078      C1079   1.396       .  A
C1078      C1145   1.434       .  S
C1079      H1082   1.084       .  S
Fe1083     O1099   2.055       .  S
Fe1083     O1264   2.040   1_554  S
Fe1084     O1087   2.059   1_556  S
Fe1084     O1091   2.084   1_556  S
Fe1084     O1263   2.066       .  S
Fe1084     O1268   2.083       .  S
Fe1084     O1262   1.970       .  S
Fe1085     O1265   2.090   1_545  S
Fe1085     O1086   2.043   1_545  S
O1086      C1093   1.266       .  A
O1087      C1101   1.269       .  A
O1088      C1093   1.278       .  A
O1089      C1092   1.267       .  A
O1090      C1102   1.270       .  A
C1092      C1126   1.486       .  S
C1092      O1097   1.273       .  A
C1093      C1122   1.472       .  S
O1094     Fe1252   1.974       .  S
O1095     Fe1252   2.052       .  S
O1095      C1098   1.263       .  A
O1096     Fe1251   2.065       .  S
O1097     Fe1253   2.080       .  S
C1098      C1118   1.483       .  S
O1099      C1104   1.267   1_565  A
O1100     Fe1252   2.046       .  S
C1101      C1110   1.478       .  S
C1102      C1106   1.477       .  S
C1104      C1114   1.478       .  S
C1105      C1106   1.345   1_455  D
C1106      H1108   1.083       .  S
C1109      C1110   1.348       .  D
C1109      H1111   1.086       .  S
C1113      C1114   1.350   1_565  D
C1113      H1115   1.087       .  S
C1117      C1118   1.346       .  D
C1118      H1120   1.085       .  S
C1121      C1122   1.341       .  D
C1121      H1123   1.087       .  S
C1122      H1124   1.085       .  S
C1125      C1126   1.345       .  D
C1125      H1127   1.087       .  S
C1126      H1128   1.084       .  S
C1129      C1130   1.204       .  T
C1130      C1131   1.409       .  S
C1131      C1132   1.204       .  T
C1133      C1134   1.204       .  T
C1134      C1135   1.409       .  S
C1135      C1136   1.204       .  T
C1137      C1138   1.206       .  T
C1138      C1139   1.412       .  S
C1139      C1140   1.206       .  T
C1141      C1142   1.203       .  T
C1142      C1143   1.407       .  S
C1143      C1144   1.203       .  T
C1145      C1146   1.202       .  T
C1146      C1147   1.406       .  S
C1147      C1148   1.202       .  T
C1149      C1150   1.205       .  T
C1150      C1151   1.411       .  S
C1151      C1152   1.205       .  T
C1153      C1154   1.206       .  T
C1154      C1155   1.413       .  S
C1155      C1156   1.206       .  T
C1157      C1158   1.206       .  T
C1158      C1159   1.411       .  S
C1159      C1160   1.205       .  T
C1161      C1162   1.211       .  T
C1162      C1163   1.420       .  S
C1163      C1164   1.211       .  T
C1165      C1166   1.202       .  T
C1166      C1167   1.406       .  S
C1167      C1168   1.202       .  T
C1169      C1170   1.211       .  T
C1170      C1171   1.420       .  S
C1171      C1172   1.211       .  T
C1173      C1174   1.202       .  T
C1174      C1175   1.406       .  S
C1175      C1176   1.202       .  T
C1177      H1178   1.112       .  S
C1177      C1183   1.540       .  S
C1177      C1182   1.541       .  S
C1177      C1181   1.541       .  S
C1179      H1180   1.112       .  S
C1179      C1185   1.537       .  S
C1179      C1184   1.538       .  S
C1179      C1186   1.539       .  S
C1181      C1184   1.370       .  D
C1181      C1329   1.459       .  S
C1182      C1185   1.370       .  D
C1182      C1344   1.451       .  S
C1183      C1186   1.371       .  D
C1183      C1328   1.448       .  S
C1184      C1336   1.446       .  S
C1185      C1340   1.450       .  S
C1186      C1321   1.456       .  S
C1187      H1188   1.112       .  S
C1187      C1193   1.541       .  S
C1187      C1192   1.537       .  S
C1187      C1191   1.538       .  S
C1189      H1190   1.112       .  S
C1189      C1195   1.543       .  S
C1189      C1194   1.539       .  S
C1189      C1196   1.540       .  S
C1191      C1194   1.370       .  D
C1191      C1317   1.454       .  S
C1192      C1195   1.371       .  D
C1192      C1312   1.452       .  S
C1193      C1196   1.371       .  D
C1193      C1300   1.449       .  S
C1194      C1316   1.446       .  S
C1195      C1308   1.454       .  S
C1196      C1301   1.458       .  S
C1197      C1198   1.412       .  A
C1197      C1202   1.420       .  A
C1197      C1293   1.503       .  S
C1198      C1199   1.402       .  A
C1198      H1203   1.084       .  S
C1199      C1200   1.396       .  A
C1199      C1309   1.447       .  S
C1200      C1201   1.400       .  A
C1200      H1204   1.085       .  S
C1201      C1202   1.413       .  A
C1201      C1332   1.453       .  S
C1202      H1205   1.081       .  S
C1206      C1207   1.419       .  A
C1206      C1211   1.407       .  A
C1206      C1289   1.498       .  S
C1207      C1208   1.408       .  A
C1207      H1212   1.081       .  S
C1208      C1209   1.398       .  A
C1208      C1305   1.449       .  S
C1209      C1210   1.397       .  A
C1209      H1213   1.085       .  S
C1210      C1211   1.401       .  A
C1210      C1333   1.441       .  S
C1211      H1214   1.084       .  S
C1215      C1216   1.415       .  A
C1215      C1285   1.488       .  S
C1216      C1217   1.408       .  A
C1216      H1221   1.082       .  S
C1217      C1218   1.399       .  A
C1217      C1337   1.444       .  S
C1218      H1222   1.085       .  S
C1219      C1220   1.411       .  A
C1219      C1304   1.452       .  S
C1220      H1223   1.082       .  S
C1224      C1225   1.410       .  A
C1224      C1281   1.498       .  S
C1225      C1226   1.402       .  A
C1225      H1230   1.084       .  S
C1226      C1227   1.397       .  A
C1226      C1297   1.444       .  S
C1227      H1231   1.085       .  S
C1228      C1229   1.406       .  A
C1228      C1341   1.446       .  S
C1229      H1232   1.081       .  S
C1233      C1234   1.420       .  A
C1233      C1277   1.493       .  S
C1234      C1235   1.410       .  A
C1234      H1239   1.080       .  S
C1235      C1236   1.397       .  A
C1235      C1320   1.447       .  S
C1236      H1240   1.085       .  S
C1237      C1238   1.404       .  A
C1237      C1325   1.443       .  S
C1238      H1241   1.083       .  S
C1242      C1243   1.422   1_455  A
C1242      C1273   1.496       .  S
C1243      C1244   1.410       .  A
C1243      H1248   1.081       .  S
C1244      C1245   1.395       .  A
C1244      C1324   1.449       .  S
C1245      H1249   1.086       .  S
C1246      C1247   1.398       .  A
C1246      C1313   1.442       .  S
C1247      H1250   1.084       .  S
Fe1251     O1267   2.101       .  S
Fe1252     O1255   2.051       .  S
Fe1252     O1259   2.052       .  S
Fe1253     O1254   2.055   1_554  S
O1254      C1261   1.267       .  A
O1255      C1269   1.265       .  A
O1256      C1261   1.276       .  A
O1257      C1260   1.270       .  A
O1258      C1270   1.266       .  A
C1260      C1294   1.495       .  S
C1260      O1265   1.273       .  A
C1261      C1290   1.483       .  S
O1263      C1266   1.268       .  A
C1266      C1286   1.484       .  S
O1267      C1272   1.278   1_565  A
C1269      C1278   1.479       .  S
C1270      C1274   1.482       .  S
C1272      C1282   1.488       .  S
C1273      C1274   1.344   1_455  D
C1274      H1276   1.084       .  S
C1277      C1278   1.342       .  D
C1277      H1279   1.087       .  S
C1281      C1282   1.349   1_565  D
C1281      H1283   1.087       .  S
C1285      C1286   1.347       .  D
C1286      H1288   1.085       .  S
C1289      C1290   1.346       .  D
C1289      H1291   1.087       .  S
C1290      H1292   1.084       .  S
C1293      C1294   1.352       .  D
C1293      H1295   1.087       .  S
C1294      H1296   1.084       .  S
C1297      C1298   1.208       .  T
C1298      C1299   1.416       .  S
C1299      C1300   1.208       .  T
C1301      C1302   1.213       .  T
C1302      C1303   1.424       .  S
C1303      C1304   1.213       .  T
C1305      C1306   1.211       .  T
C1306      C1307   1.421       .  S
C1307      C1308   1.211       .  T
C1309      C1310   1.210       .  T
C1310      C1311   1.418       .  S
C1311      C1312   1.210       .  T
C1313      C1314   1.206       .  T
C1314      C1315   1.413       .  S
C1315      C1316   1.206       .  T
C1317      C1318   1.211       .  T
C1318      C1319   1.420       .  S
C1319      C1320   1.211       .  T
C1321      C1322   1.212       .  T
C1322      C1323   1.422       .  S
C1323      C1324   1.212       .  T
C1325      C1326   1.207       .  T
C1326      C1327   1.415       .  S
C1327      C1328   1.207       .  T
C1329      C1330   1.214       .  T
C1330      C1331   1.425       .  S
C1331      C1332   1.214       .  T
C1333      C1334   1.206       .  T
C1334      C1335   1.413       .  S
C1335      C1336   1.206       .  T
C1337      C1338   1.208       .  T
C1338      C1339   1.416       .  S
C1339      C1340   1.208       .  T
C1341      C1342   1.209       .  T
C1342      C1343   1.418       .  S
C1343      C1344   1.209       .  T
