geometry optimzed in LAMMPS
_audit_creation_date              2020-11-30 
_audit_creation_method            'lammps2cif' 
_symmetry_space_group_name_H-M    'P1' 
_symmetry_Int_Tables_number       1 
_symmetry_cell_setting            triclinic 
loop_ 
_symmetry_equiv_pos_as_xyz 
  x,y,z 
_cell_length_a                    39.11237871 
_cell_length_b                    38.77368194135263 
_cell_length_c                    28.60791739602096 
_cell_angle_alpha                 91.83984795878683 
_cell_angle_beta                  89.63487889925545 
_cell_angle_gamma                 88.57208053031123 
loop_ 
_atom_site_label 
_atom_site_type_symbol 
_atom_site_fract_x 
_atom_site_fract_y 
_atom_site_fract_z 
_atom_site_charge 
C1          C  0.87162858  0.37222984  0.06786225     0.30700
C2          C  0.86933421  0.37573006  0.29607078     0.30700
C3          C  0.90583321  0.37793649  0.04094389    -0.05500
C4          C  0.86024074  0.33852041  0.03967951    -0.06300
C5          C  0.84909107  0.39926901  0.04256648    -0.06200
C6          C  0.90232393  0.38301813  0.32473318    -0.05500
C7          C  0.85841915  0.34233508  0.32167915    -0.06300
C8          C  0.84456791  0.40230643  0.32294223    -0.06200
C9          C  0.93370903  0.39517065  0.31246902    -0.31600
N10         N  0.95394789  0.40202089  0.01691124     0.14900
C11         C  0.93598431  0.39254351  0.05505518    -0.31600
H12         H  0.94264836  0.39874210  0.09085973     0.16900
C13         C  0.85490027  0.30856752  0.30655351    -0.30600
N14         N  0.85102971  0.28450854  0.01080920     0.13600
C15         C  0.85485159  0.30427329  0.05083071    -0.30500
C16         C  0.81812535  0.42386077  0.30902699    -0.30800
N17         N  0.79973408  0.43581052  0.34712991     0.14200
H18         H  0.81150821  0.42846927  0.27322352     0.16800
C19         C  0.81877258  0.41432286  0.05804060    -0.30800
H20         H  0.80909843  0.41395239  0.09351629     0.16800
H21         H  0.85671342  0.29396089  0.08536936     0.16800
H22         H  0.94186963  0.39956591  0.27707857     0.16900
H23         H  0.85771399  0.29943819  0.27106252     0.16800
C24         C  0.87129992  0.37481472  0.12971428     0.30700
C25         C  0.87151828  0.37543586  0.23398640     0.30700
C26         C  0.87522460  0.41024715  0.15744511    -0.05500
C27         C  0.83960624  0.36169725  0.15696646    -0.06300
C28         C  0.89978294  0.35419456  0.15481505    -0.06200
C29         C  0.87505361  0.41047762  0.20848559    -0.05500
C30         C  0.84016928  0.36193723  0.20725790    -0.06300
C31         C  0.89995874  0.35375679  0.20569630    -0.06200
C32         C  0.89380274  0.43852136  0.22259781    -0.31600
N33         N  0.90614489  0.45462210  0.18480218     0.14900
C34         C  0.89435915  0.43818191  0.14559669    -0.31600
H35         H  0.90287124  0.44306146  0.11052661     0.16900
C36         C  0.80868319  0.35244574  0.22208028    -0.30600
N37         N  0.78850880  0.34759486  0.18430659     0.13600
C38         C  0.80686131  0.35297245  0.14470928    -0.30500
C39         C  0.91516769  0.32230258  0.21527550    -0.30800
N40         N  0.92411441  0.30479754  0.17484837     0.14200
H41         H  0.91442836  0.31068645  0.24886916     0.16800
C42         C  0.91569327  0.32438976  0.13847809    -0.30800
H43         H  0.91524810  0.31472181  0.10260576     0.16800
H44         H  0.79646604  0.35267057  0.10976772     0.16800
H45         H  0.90177292  0.44365571  0.25810076     0.16900
H46         H  0.80014140  0.35150902  0.25807428     0.16800
C47         C  0.50880964  0.87070675  0.03336622     0.30700
C48         C  0.50825264  0.87202858  0.26273189     0.30700
C49         C  0.50635352  0.90554265  0.00660122    -0.05500
C50         C  0.53823096  0.85223496  0.00443219    -0.06300
C51         C  0.47851329  0.85177655  0.00835847    -0.06200
C52         C  0.50513130  0.90771936  0.29038398    -0.05500
C53         C  0.53974631  0.85677395  0.28810737    -0.06300
C54         C  0.48006546  0.85167512  0.29083555    -0.06200
C55         C  0.48891269  0.93820302  0.27793199    -0.31600
N56         N  0.47603613  0.95171272  0.98185122     0.14900
C57         C  0.48847457  0.93563894  0.01996611    -0.31600
H58         H  0.48163121  0.94296751  0.05551360     0.16900
C59         C  0.57141687  0.84526766  0.27291527    -0.30600
N60         N  0.58820822  0.83260022  0.97589066     0.13600
C61         C  0.56967720  0.83905753  0.01578294    -0.30500
C62         C  0.46186585  0.82194759  0.27976100    -0.30800
N63         N  0.45108261  0.80663838  0.31953003     0.14200
H64         H  0.45987299  0.81032262  0.24515896     0.16800
C65         C  0.46281675  0.82244918  0.02280470    -0.30800
H66         H  0.46358959  0.81305284  0.05795850     0.16800
H67         H  0.58036466  0.83965503  0.05055526     0.16800
H68         H  0.48192967  0.94444634  0.24277947     0.16900
H69         H  0.58080053  0.84494782  0.23727977     0.16800
C70         C  0.51024891  0.87257506  0.20059803     0.30700
C71         C  0.51103295  0.87184750  0.09574522     0.30700
C72         C  0.47750672  0.88442484  0.17369354    -0.05500
C73         C  0.53771469  0.89501365  0.17479690    -0.06300
C74         C  0.51797469  0.83809083  0.17232170    -0.06200
C75         C  0.47785883  0.88422645  0.12340515    -0.05500
C76         C  0.53842818  0.89435141  0.12367609    -0.06300
C77         C  0.51806214  0.83743224  0.12179397    -0.06200
C78         C  0.44762179  0.90060086  0.11061045    -0.31600
N79         N  0.42986050  0.91183313  0.14959241     0.14900
C80         C  0.44722048  0.90083614  0.18772837    -0.31600
H81         H  0.43964937  0.90647180  0.22355224     0.16900
C82         C  0.57208925  0.90238872  0.11219537    -0.30600
N83         N  0.59112192  0.90925755  0.15119320     0.13600
C84         C  0.57041268  0.90471397  0.18888876    -0.30500
C85         C  0.52371853  0.80328467  0.10774462    -0.30800
N86         N  0.52711946  0.78384206  0.14627246     0.14200
H87         H  0.52272836  0.79290297  0.07224787     0.16800
C88         C  0.52428439  0.80484489  0.18517096    -0.30800
H89         H  0.52346461  0.79587227  0.22059952     0.16800
H90         H  0.57950548  0.90501089  0.22445093     0.16800
H91         H  0.44025518  0.90598231  0.07523728     0.16900
H92         H  0.58293871  0.89954899  0.07781622     0.16800
Zn93       Zn  0.94877371  0.97355723  0.00513385     1.49700
Zn94       Zn  0.89521467  0.94798139  0.28613363     1.49400
Zn95       Zn  0.96854185  0.89767227  0.32100229     1.49100
Zn96       Zn  0.89459079  0.90867566  0.05259161     1.49500
O97         O  0.92036582  0.92846692  0.99906158    -1.83500
O98         O  0.93187451  0.01564165  0.97229459    -0.74100
O99         O  0.91452004  0.91820177  0.23221785    -0.73900
O100        O  0.01948446  0.91463751  0.33235501    -0.77400
O101        O  0.89004358  0.00379414  0.28736361    -0.74100
O102        O  0.00351845  0.96453638  0.99659820    -0.73700
O103        O  0.95810323  0.88686204  0.25527563    -0.74300
O104        O  0.91022136  0.85835828  0.07300674    -0.73700
O105        O  0.84901898  0.92759615  0.29576305    -0.74400
O106        O  0.96053480  0.85256502  0.35183261    -0.73800
O107        O  0.84616783  0.90162931  0.03646920    -0.74300
O108        O  0.89886293  0.95122866  0.09310052    -0.74200
O109        O  0.93062842  0.99167909  0.06714708    -0.74000
C110        C  0.90133407  0.02395742  0.96244130     0.77800
C111        C  0.94577039  0.91544438  0.24293641     0.78300
C112        C  0.02315619  0.93721383  0.99513176     0.77200
C113        C  0.93140073  0.83800793  0.05081311     0.77600
C114        C  0.82931934  0.90679493  0.99955163     0.78800
C115        C  0.92793358  0.96200965  0.08246042     0.77800
Zn116      Zn  0.97861577  0.98332547  0.12849189     1.49700
Zn117      Zn  0.91913876  0.97662819  0.19840518     1.49400
Zn118      Zn  0.93194599  0.90625869  0.13981564     1.49100
Zn119      Zn  0.99998282  0.92841050  0.18998666     1.49500
O120        O  0.95524143  0.94915286  0.16513046    -1.83500
O121        O  0.95604303  0.03079585  0.12722200    -0.74100
O122        O  0.86857381  0.95768378  0.18833514    -0.73900
O123        O  0.95380176  0.90645748  0.07700929    -0.73400
O124        O  0.91747593  0.02719262  0.18391047    -0.74100
O125        O  0.98637324  0.95110046  0.07565917    -0.73700
O126        O  0.87700337  0.90859095  0.14651215    -0.74300
O127        O  0.00345339  0.87585881  0.18604619    -0.73700
O128        O  0.94754479  0.97477824  0.25559024    -0.74400
O129        O  0.95167045  0.86122697  0.16232013    -0.73800
O130        O  0.99586259  0.94586924  0.25517904    -0.74300
O131        O  0.04464037  0.94720999  0.16579094    -0.74200
O132        O  0.02321432  0.99709408  0.14701578    -0.74000
C133        C  0.93386571  0.04473182  0.15493799     0.77800
C134        C  0.85645423  0.93151482  0.16567194     0.78300
C135        C  0.95707676  0.93843107  0.07420303     0.77200
C136        C  0.98146739  0.85295827  0.17666763     0.77600
C137        C  0.96363304  0.94635562  0.25666505     0.78800
C138        C  0.04885949  0.97825874  0.15455843     0.77800
C139        C  0.01552501  0.50584774  0.30186309     0.30700
C140        C  0.01436243  0.50792944  0.07231099     0.30700
C141        C  0.00844099  0.47187315  0.32810455    -0.05500
C142        C  0.04848891  0.51457834  0.32898265    -0.06300
C143        C  0.98883813  0.52995550  0.32916412    -0.06200
C144        C  0.01008551  0.47216845  0.04490305    -0.05500
C145        C  0.04482276  0.52221290  0.04300517    -0.06300
C146        C  0.98454346  0.52853696  0.04767583    -0.06200
C147        C  0.99238792  0.44305948  0.05704945    -0.31600
N148        N  0.98086072  0.42599910  0.01798393     0.14900
C149        C  0.99103400  0.44296828  0.31432195    -0.31600
H150        H  0.98442452  0.43633337  0.27872771     0.16900
C151        C  0.07897537  0.52579191  0.05252617    -0.30600
N152        N  0.09948699  0.50176894  0.35952072     0.13600
C153        C  0.07938275  0.49720588  0.32260229    -0.30500
C154        C  0.96854646  0.55931625  0.06170962    -0.30800
N155        N  0.95835977  0.57719689  0.02391928     0.14200
H156        H  0.96884255  0.57036022  0.09682903     0.16800
C157        C  0.97156241  0.55949403  0.31619004    -0.30800
H158        H  0.96984419  0.56892763  0.28120786     0.16800
H159        H  0.08427457  0.47622218  0.29770985     0.16800
H160        H  0.98552879  0.43683664  0.09225962     0.16900
H161        H  0.09014008  0.52681912  0.08648391     0.16800
C162        C  0.01753614  0.50763139  0.23947141     0.30700
C163        C  0.01697932  0.50834233  0.13471415     0.30700
C164        C  0.98595947  0.49406082  0.21170046    -0.05500
C165        C  0.02053316  0.54270609  0.21508031    -0.06300
C166        C  0.04827843  0.48965424  0.21090353    -0.06200
C167        C  0.98564500  0.49476172  0.16156830    -0.05500
C168        C  0.02039079  0.54348334  0.16436105    -0.06300
C169        C  0.04639876  0.48664603  0.15984763    -0.06200
C170        C  0.95391011  0.48391285  0.14767221    -0.31600
N171        N  0.93548020  0.47543619  0.18588926     0.14900
C172        C  0.95413183  0.48301279  0.22478683    -0.31600
H173        H  0.94543428  0.48028514  0.26033820     0.16900
C174        C  0.02399092  0.57788470  0.15450660    -0.30600
N175        N  0.02651077  0.59694239  0.19519676     0.13600
C176        C  0.02552626  0.57573579  0.23170568    -0.30500
C177        C  0.08011890  0.48102578  0.14476804    -0.30800
N178        N  0.10231734  0.48666754  0.17995179     0.14200
H179        H  0.08807575  0.47577190  0.10979762     0.16800
C180        C  0.08324575  0.49523433  0.21789419    -0.30800
H181        H  0.09367541  0.51200224  0.24447561     0.16800
H182        H  0.02687563  0.58421473  0.26799650     0.16800
H183        H  0.94521209  0.48168797  0.11197733     0.16900
H184        H  0.02348704  0.58860831  0.12032688     0.16800
C185        C  0.36709755  0.01727427  0.03681301     0.30700
C186        C  0.37093044  0.02364842  0.26689892     0.30700
C187        C  0.39842693  0.00034618  0.00914489    -0.05500
C188        C  0.33708858  0.99669060  0.01136018    -0.06300
C189        C  0.36527248  0.05087917  0.00771200    -0.06200
C190        C  0.40340270  0.00897795  0.29339973    -0.05500
C191        C  0.34229919  0.00388826  0.29388998    -0.06300
C192        C  0.36538776  0.05902388  0.29472253    -0.06200
C193        C  0.43428305  0.99333998  0.27936904    -0.31600
N194        N  0.44744743  0.97516567  0.98250864     0.14900
C195        C  0.43011544  0.98689913  0.02158588    -0.31600
H196        H  0.43956708  0.98514796  0.05682930     0.16900
C197        C  0.31080591  0.99032552  0.28099044    -0.30600
N198        N  0.28534932  0.97691543  0.98760268     0.13600
C199        C  0.30459841  0.98666580  0.02531351    -0.30500
C200        C  0.37072429  0.09167671  0.27983893    -0.30800
N201        N  0.38829484  0.10933089  0.31248853     0.14200
H202        H  0.36444007  0.10116467  0.24618823     0.16800
C203        C  0.38483719  0.08004127  0.01220811    -0.30800
H204        H  0.40453318  0.08403572  0.03760397     0.16800
H205        H  0.29480444  0.98872797  0.06052539     0.16800
H206        H  0.44258784  0.98883891  0.24359814     0.16900
H207        H  0.30134722  0.98785104  0.24569104     0.16800
C208        C  0.37243777  0.02376026  0.20460044     0.30700
C209        C  0.36819478  0.02111193  0.09981740     0.30700
C210        C  0.38075511  0.98911397  0.17697141    -0.05500
C211        C  0.33826381  0.03320190  0.18029360    -0.06300
C212        C  0.39680946  0.04837947  0.17544727    -0.06200
C213        C  0.37946748  0.98798029  0.12671949    -0.05500
C214        C  0.33592359  0.03175188  0.12982899    -0.06300
C215        C  0.39114961  0.04917172  0.12469759    -0.06200
C216        C  0.39336538  0.95605704  0.11269447    -0.31600
N217        N  0.40440897  0.93876928  0.15070613     0.14900
C218        C  0.39524665  0.95795977  0.18965623    -0.31600
H219        H  0.40064552  0.95066005  0.22492523     0.16900
C220        C  0.30538476  0.04786836  0.11990048    -0.30600
N221        N  0.28814789  0.05583173  0.16056062     0.13600
C222        C  0.30865930  0.04862036  0.19699819    -0.30500
C223        C  0.38766451  0.08460299  0.11764157    -0.30800
N224        N  0.39958943  0.10394443  0.15329915     0.14200
H225        H  0.36999981  0.09586006  0.09340505     0.16800
C226        C  0.40700285  0.08188438  0.18779875    -0.30800
H227        H  0.41721264  0.09004696  0.22109179     0.16800
H228        H  0.30144070  0.05224669  0.23335999     0.16800
H229        H  0.39687243  0.94681138  0.07703749     0.16900
H230        H  0.29468651  0.05025580  0.08531591     0.16800
Zn231      Zn  0.47587797  0.48760062  0.30098668     1.49700
Zn232      Zn  0.41444402  0.48234319  0.06257258     1.49400
Zn233      Zn  0.41941889  0.41796390  0.30304611     1.49100
Zn234      Zn  0.47390200  0.41164626  0.04807882     1.49500
O235        O  0.44245627  0.45574990  0.33988369    -1.83500
O236        O  0.45455387  0.54105984  0.31119272    -0.74100
O237        O  0.36337845  0.47009309  0.05894145    -0.73900
O238        O  0.44400031  0.41430433  0.23884997    -0.73400
O239        O  0.41853569  0.52970578  0.03201120    -0.74100
O240        O  0.48891323  0.45634586  0.24037083    -0.73700
O241        O  0.36941165  0.43011138  0.30494124    -0.74300
O242        O  0.45581109  0.36194387  0.04357329    -0.73700
O243        O  0.44617630  0.49077575  0.12618074    -0.74400
O244        O  0.42784207  0.37047665  0.32802285    -0.73800
O245        O  0.48195401  0.44009812  0.10734735    -0.74300
O246        O  0.52121415  0.40799566  0.01668228    -0.74200
O247        O  0.52763379  0.48944774  0.31557840    -0.74000
C248        C  0.42885128  0.55442879  0.33493403     0.77800
C249        C  0.35296774  0.44878524  0.33551813     0.78300
C250        C  0.47426248  0.42699135  0.25727678     0.77200
C251        C  0.45196911  0.35566688  0.35013135     0.77600
C252        C  0.47119896  0.47386874  0.09881081     0.78800
C253        C  0.54773003  0.46605523  0.33088573     0.77800
Zn254      Zn  0.50544899  0.47091456  0.16959361     1.49700
Zn255      Zn  0.48411931  0.40101617  0.17662851     1.49400
Zn256      Zn  0.43741934  0.46858757  0.23834465     1.49100
Zn257      Zn  0.42747032  0.44115839  0.11623245     1.49500
O258        O  0.45595634  0.44655923  0.17624575    -1.83500
O259        O  0.54447924  0.43646804  0.18264445    -0.74100
O260        O  0.50438892  0.38664257  0.23997632    -0.73900
O261        O  0.45346967  0.52054034  0.22721422    -0.73400
O262        O  0.52499076  0.39521623  0.13649933    -0.74100
O263        O  0.50807162  0.51570711  0.20657476    -0.73700
O264        O  0.47676006  0.42455827  0.29397053    -0.74300
O265        O  0.38199470  0.46401546  0.14335349    -0.73700
O266        O  0.45385344  0.36569629  0.15931813    -0.74400
O267        O  0.38384952  0.46896713  0.22245847    -0.73800
O268        O  0.41361664  0.38695529  0.11436319    -0.74300
O269        O  0.46996254  0.47978780  0.06251905    -0.74200
O270        O  0.51809491  0.49252427  0.10779734    -0.74000
C271        C  0.54914907  0.40791403  0.15988105     0.77800
C272        C  0.49798677  0.40070539  0.27971941     0.78300
C273        C  0.48189835  0.53451973  0.21647842     0.77200
C274        C  0.36726502  0.47011404  0.18328969     0.77600
C275        C  0.42598461  0.36193697  0.13839353     0.78800
C276        C  0.49731441  0.49546803  0.07437239     0.77800
C277        C  0.39680304  0.14164928  0.15537248     0.02000
C278        C  0.42385518  0.16115610  0.13950056     0.04800
C279        C  0.41930218  0.19694709  0.13155293    -0.11200
C280        C  0.38918739  0.21590356  0.14725276     0.24100
C281        C  0.36194000  0.19571847  0.16436140    -0.11800
C282        C  0.36534777  0.15905765  0.16492234     0.05500
C283        C  0.39067673  0.25578694  0.15172032     0.27900
C284        C  0.41826911  0.26963762  0.17723347    -0.12500
C285        C  0.42470757  0.30493176  0.17842703     0.06000
C286        C  0.40978940  0.32711188  0.14546216    -0.08500
C287        C  0.37925422  0.31571250  0.12504224     0.06900
C288        C  0.36829560  0.28099607  0.13053882    -0.12800
Br289      Br  0.32010169  0.21569268  0.19043078    -0.04900
Br290      Br  0.46763687  0.13806871  0.13109382     0.00700
Br291      Br  0.44797230  0.32289816  0.23299176     0.01200
Br292      Br  0.32152756  0.27245944  0.11295581    -0.03200
Br293      Br  0.32633251  0.13203401  0.17697159     0.01300
Br294      Br  0.45627939  0.22028921  0.10194893    -0.02500
Br295      Br  0.44962998  0.24083990  0.21044390    -0.03400
Br296      Br  0.34992862  0.34925254  0.09677032     0.00600
C297        C  0.45245069  0.31664043  0.35002668     0.02000
C298        C  0.48127084  0.29711311  0.33309359     0.04800
C299        C  0.47808135  0.26195471  0.31733190    -0.11200
C300        C  0.44714206  0.24373533  0.32627167     0.24100
C301        C  0.40659588  0.25310537  0.01523859    -0.11800
C302        C  0.40466538  0.28918091  0.01232903     0.05500
C303        C  0.43741797  0.20720828  0.30759062     0.27900
C304        C  0.40302756  0.20304505  0.29151624    -0.12500
C305        C  0.38650822  0.17147897  0.29682370     0.06000
C306        C  0.40550966  0.14144448  0.30564786    -0.08500
C307        C  0.43537583  0.13386706  0.97971700     0.06900
C308        C  0.44862762  0.16684262  0.99007585    -0.12800
Br309      Br  0.36775914  0.22890884  0.03879718    -0.04900
Br310      Br  0.52420075  0.32005062  0.32492554     0.00700
Br311      Br  0.33731253  0.17026642  0.30061994     0.01200
Br312      Br  0.49148682  0.16600109  0.02235129    -0.03200
Br313      Br  0.36168131  0.30958841  0.99425556     0.01300
Br314      Br  0.51556706  0.24379647  0.27876878    -0.02500
Br315      Br  0.37564697  0.24193726  0.27029416    -0.03400
Br316      Br  0.46384179  0.09249145  0.98301965     0.00600
C317        C  0.13962015  0.48794189  0.17779727     0.02000
C318        C  0.15657646  0.51786694  0.16536938     0.04800
C319        C  0.19317317  0.51895157  0.16391697    -0.11200
C320        C  0.21440219  0.49022865  0.17838453     0.24100
C321        C  0.19561407  0.46247016  0.19711773    -0.11800
C322        C  0.15947607  0.46059944  0.19449685     0.05500
C323        C  0.25472380  0.48773087  0.17674701     0.27900
C324        C  0.27181118  0.45505536  0.16594523    -0.12500
C325        C  0.30678478  0.44910332  0.17676600     0.06000
C326        C  0.32890905  0.47659820  0.18306551    -0.08500
C327        C  0.31395737  0.50984392  0.18304213     0.06900
C328        C  0.27799224  0.51519522  0.18816781    -0.12800
Br329      Br  0.21740685  0.42931513  0.23516810    -0.04900
Br330      Br  0.12870920  0.55850460  0.15444431     0.00700
Br331      Br  0.32428817  0.40304865  0.18517050     0.01200
Br332      Br  0.26692037  0.55844287  0.22073699    -0.03200
Br333      Br  0.13626649  0.41978165  0.21305564     0.01300
Br334      Br  0.21057290  0.56187448  0.14434426    -0.02500
Br335      Br  0.25043935  0.41759640  0.13258952    -0.03400
Br336      Br  0.34196105  0.54815147  0.17024194     0.00600
C337        C  0.13398058  0.48892544  0.36108781     0.02000
C338        C  0.13543043  0.47360080  0.03010258     0.04800
C339        C  0.16858585  0.46185768  0.04066918    -0.11200
C340        C  0.20258216  0.46243534  0.34877199     0.24100
C341        C  0.19077132  0.49443393  0.33085266    -0.11800
C342        C  0.15918303  0.50941543  0.34370030     0.05500
C343        C  0.24178948  0.45530435  0.34714922     0.27900
C344        C  0.25631381  0.49604393  0.03918359    -0.12500
C345        C  0.29196178  0.49068769  0.04178025     0.06000
C346        C  0.31500303  0.45030127  0.33484583    -0.08500
C347        C  0.29501100  0.42071357  0.32908873     0.06900
C348        C  0.25872349  0.42298239  0.33378318    -0.12800
Br349      Br  0.21454789  0.51700072  0.28319206    -0.04900
Br350      Br  0.09840972  0.44164477  0.03090904     0.00700
Br351      Br  0.32033880  0.53045456  0.05241418     0.01200
Br352      Br  0.23551905  0.38036092  0.32073898    -0.03200
Br353      Br  0.14814515  0.55711061  0.33136203     0.01300
Br354      Br  0.17182837  0.42912808  0.08901489    -0.02500
Br355      Br  0.23966772  0.54345747  0.04311891    -0.03400
Br356      Br  0.31758912  0.37664838  0.31492959     0.00600
C357        C  0.25245245  0.05035292  0.16374795     0.02000
C358        C  0.24125191  0.01815674  0.14843877     0.04800
C359        C  0.20723587  0.01420154  0.13985293    -0.11200
C360        C  0.18301962  0.03560209  0.16379765     0.24100
C361        C  0.19409212  0.06622244  0.18686123    -0.11800
C362        C  0.22874291  0.07510047  0.18274541     0.05500
C363        C  0.14758119  0.02347992  0.16639016     0.27900
C364        C  0.12037911  0.04347757  0.14876795    -0.12500
C365        C  0.08752170  0.02977935  0.14671322     0.06000
C366        C  0.08320965  0.99372937  0.15324163    -0.08500
C367        C  0.11222584  0.97300074  0.16248785     0.06900
C368        C  0.14229347  0.98861738  0.17707763    -0.12800
Br369      Br  0.16340553  0.09499237  0.22536204    -0.04900
Br370      Br  0.27091187  0.97746226  0.14763624     0.00700
Br371      Br  0.05066961  0.06159720  0.13130960     0.01200
Br372      Br  0.17803078  0.96069355  0.20527925    -0.03200
Br373      Br  0.24318870  0.11952368  0.20493654     0.01300
Br374      Br  0.19576861  0.97778939  0.09718656    -0.02500
Br375      Br  0.12880184  0.08684318  0.11904618    -0.03400
Br376      Br  0.11415392  0.92477169  0.14317292     0.00600
C377        C  0.02085585  0.63361815  0.20018299     0.02000
C378        C  0.98763121  0.64725345  0.19645179     0.04800
C379        C  0.98216259  0.68306187  0.19473271    -0.11200
C380        C  0.00886812  0.70628167  0.20573598     0.24100
C381        C  0.04121160  0.69156343  0.21810346    -0.11800
C382        C  0.04770042  0.65575046  0.21107405     0.05500
C383        C  0.00347650  0.74494324  0.20092337     0.27900
C384        C  0.02624529  0.76461420  0.17381031    -0.12500
C385        C  0.02024239  0.80037174  0.16881503     0.06000
C386        C  0.98970196  0.81634633  0.18587006    -0.08500
C387        C  0.96678841  0.79722856  0.21210547     0.06900
C388        C  0.97435383  0.76253267  0.22127247    -0.12800
Br389      Br  0.07676352  0.71892864  0.24648764    -0.04900
Br390      Br  0.94970691  0.61631857  0.19242539     0.00700
Br391      Br  0.05384839  0.82732457  0.13728797     0.01200
Br392      Br  0.94347835  0.74078582  0.26260400    -0.03200
Br393      Br  0.09349678  0.63692542  0.21378296     0.01300
Br394      Br  0.94023690  0.69772772  0.16661649    -0.02500
Br395      Br  0.06470951  0.74386749  0.13936710    -0.03400
Br396      Br  0.92488440  0.81856031  0.23750414     0.00600
C397        C  0.06247458  0.94017072  0.99511489     0.02000
C398        C  0.08948607  0.95986122  0.30062954     0.04800
C399        C  0.12391479  0.94973790  0.29211271    -0.11200
C400        C  0.13698782  0.94769554  0.99332785     0.24100
C401        C  0.11430597  0.97389524  0.01252334    -0.11800
C402        C  0.07812593  0.97108384  0.01089728     0.05500
C403        C  0.18426710  0.95490429  0.32608484     0.27900
C404        C  0.21118998  0.92973133  0.33085840    -0.12500
C405        C  0.24637405  0.93913651  0.32962081     0.06000
C406        C  0.24879013  0.96879842  0.98806147    -0.08500
C407        C  0.22398252  0.99225904  0.97127894     0.06900
C408        C  0.18878620  0.98387234  0.96931071    -0.12800
Br409      Br  0.13181929  0.01482605  0.04248089    -0.04900
Br410      Br  0.06848687  0.99517874  0.26507173     0.00700
Br411      Br  0.28228989  0.90516961  0.33848054     0.01200
Br412      Br  0.15830403  0.01407907  0.93642804    -0.03200
Br413      Br  0.05072872  0.01136333  0.02999677     0.01300
Br414      Br  0.12568752  0.90692455  0.25673238    -0.02500
Br415      Br  0.20067249  0.88154869  0.33363463    -0.03400
Br416      Br  0.23783070  0.03772593  0.95540760     0.00600
C417        C  0.93693095  0.80032764  0.06102868     0.02000
C418        C  0.91105149  0.77941037  0.07878777     0.04800
C419        C  0.91344536  0.74277206  0.07296501    -0.11200
C420        C  0.94839518  0.72771706  0.37591209     0.24100
C421        C  0.97625946  0.74868122  0.36390896    -0.11800
C422        C  0.97563118  0.78438006  0.37419006     0.05500
C423        C  0.94562309  0.68714257  0.04134750     0.27900
C424        C  0.97639398  0.66881252  0.05274766    -0.12500
C425        C  0.98180902  0.63431866  0.03832408     0.06000
C426        C  0.95416364  0.61426958  0.02523873    -0.08500
C427        C  0.92913084  0.63236982  0.33998005     0.06900
C428        C  0.92606126  0.66889997  0.34355593    -0.12800
Br429      Br  0.01369818  0.73092992  0.32518221    -0.04900
Br430      Br  0.87332416  0.80038301  0.11402968     0.00700
Br431      Br  0.02774498  0.61523521  0.03156409     0.01200
Br432      Br  0.88815007  0.68997367  0.31119887    -0.03200
Br433      Br  0.01797037  0.80896986  0.36844309     0.01300
Br434      Br  0.87620919  0.71642831  0.09749983    -0.02500
Br435      Br  0.01137750  0.68743779  0.09168192    -0.03400
Br436      Br  0.89445837  0.60494569  0.31040270     0.00600
C437        C  0.48504826  0.57301888  0.21199078     0.02000
C438        C  0.51073921  0.59130968  0.23620991     0.04800
C439        C  0.51834085  0.62575483  0.22499014    -0.11200
C440        C  0.49913675  0.64335028  0.19083803     0.24100
C441        C  0.47121902  0.62597688  0.17000885    -0.11800
C442        C  0.46599124  0.59072175  0.17796646     0.05500
C443        C  0.50774992  0.67965700  0.17703499     0.27900
C444        C  0.48324079  0.70677083  0.18312228    -0.12500
C445        C  0.48782142  0.73880753  0.16366342     0.06000
C446        C  0.52008301  0.74773023  0.14803803    -0.08500
C447        C  0.54587237  0.72196902  0.14245405     0.06900
C448        C  0.53924067  0.68747696  0.15476439    -0.12800
Br449      Br  0.43846187  0.64960056  0.13116522    -0.04900
Br450      Br  0.53553569  0.56920823  0.28534925     0.00700
Br451      Br  0.44977173  0.77110223  0.15772016     0.01200
Br452      Br  0.57246638  0.65139779  0.13859446    -0.03200
Br453      Br  0.43453335  0.56642183  0.13802169     0.01300
Br454      Br  0.55454123  0.64905610  0.25789950    -0.02500
Br455      Br  0.44534263  0.70327198  0.22353889    -0.03400
Br456      Br  0.58901229  0.73422864  0.11587198     0.00600
C457        C  0.81780879  0.92783985  0.16049111     0.02000
C458        C  0.79743700  0.95095000  0.13432472     0.04800
C459        C  0.76153400  0.94592863  0.12759108    -0.11200
C460        C  0.74367024  0.91960628  0.15095400     0.24100
C461        C  0.76523481  0.89592082  0.17554208    -0.11800
C462        C  0.80132730  0.89965961  0.17935474     0.05500
C463        C  0.70350259  0.91728687  0.15059569     0.27900
C464        C  0.68120714  0.94652463  0.16201146    -0.12500
C465        C  0.64461643  0.94389143  0.16159155     0.06000
C466        C  0.62865831  0.91208674  0.15245458    -0.08500
C467        C  0.65009988  0.88295880  0.14335163     0.06900
C468        C  0.68636972  0.88572845  0.13979524    -0.12800
Br469      Br  0.74736570  0.85700938  0.20492289    -0.04900
Br470      Br  0.81916966  0.98920094  0.10591094     0.00700
Br471      Br  0.61557640  0.98406742  0.17351294     0.01200
Br472      Br  0.70999263  0.84795342  0.10796467    -0.03200
Br473      Br  0.82899309  0.86611189  0.21189267     0.01300
Br474      Br  0.73866435  0.97288011  0.08107489    -0.02500
Br475      Br  0.69957059  0.99046845  0.18221452    -0.03400
Br476      Br  0.62896696  0.83878739  0.13467761     0.00600
C477        C  0.41928975  0.59270607  0.33559208     0.02000
C478        C  0.46928305  0.60166100  0.02571407     0.04800
C479        C  0.46781569  0.63794840  0.02427723    -0.11200
C480        C  0.40488807  0.66523683  0.33435125     0.24100
C481        C  0.40124270  0.64435272  0.29346605    -0.11800
C482        C  0.40927354  0.60855686  0.29427850     0.05500
C483        C  0.41525330  0.70257659  0.33227803     0.27900
C484        C  0.41616096  0.71715050  0.01397457    -0.12500
C485        C  0.41839366  0.75303456  0.00659820     0.06000
C486        C  0.43864182  0.77162276  0.32266188    -0.08500
C487        C  0.46202099  0.74392711  0.32864990     0.06900
C488        C  0.45052709  0.70994345  0.33388790    -0.12800
Br489      Br  0.37583879  0.66205486  0.24155996    -0.04900
Br490      Br  0.50797025  0.57938332  0.05493996     0.00700
Br491      Br  0.38135740  0.78446808  0.02410638     0.01200
Br492      Br  0.48371482  0.67258842  0.33766327    -0.03200
Br493      Br  0.39717283  0.57926933  0.24336736     0.01300
Br494      Br  0.50305890  0.66383067  0.05583580    -0.02500
Br495      Br  0.37999277  0.70121113  0.05324525    -0.03400
Br496      Br  0.51026836  0.75248980  0.32645956     0.00600
C497        C  0.62384833  0.83917981  0.97480182     0.02000
C498        C  0.65063645  0.82007313  0.29678689     0.04800
C499        C  0.68569124  0.82760691  0.29468037    -0.11200
C500        C  0.69375846  0.85191368  0.98613250     0.24100
C501        C  0.66815623  0.87533264  0.00445158    -0.11800
C502        C  0.63437045  0.87100688  0.99247552     0.05500
C503        C  0.72992812  0.86366483  0.98668215     0.27900
C504        C  0.75756074  0.84350951  0.00404028    -0.12500
C505        C  0.79054234  0.85712535  0.00482644     0.06000
C506        C  0.79541517  0.89203469  0.99475635    -0.08500
C507        C  0.77493641  0.91698515  0.30378793     0.06900
C508        C  0.74218458  0.90355803  0.29827507    -0.12800
Br509      Br  0.67744463  0.91640525  0.04158288    -0.04900
Br510      Br  0.63408997  0.77494714  0.27999469     0.00700
Br511      Br  0.82961765  0.82676185  0.01397063     0.01200
Br512      Br  0.70929171  0.93052520  0.26439851    -0.03200
Br513      Br  0.60391190  0.91096948  0.98944438     0.01300
Br514      Br  0.71421797  0.79418843  0.26008243    -0.02500
Br515      Br  0.75188631  0.79823628  0.02926746    -0.03400
Br516      Br  0.78313168  0.96402845  0.28641597     0.00600
C517        C  0.93048139  0.08260402  0.15734310     0.02000
C518        C  0.90346534  0.10005637  0.13575748     0.04800
C519        C  0.90219097  0.13645441  0.13643589    -0.11200
C520        C  0.92907816  0.15587093  0.15711752     0.24100
C521        C  0.95648521  0.13742264  0.17858007    -0.11800
C522        C  0.95589007  0.10124918  0.18061091     0.05500
C523        C  0.92754070  0.19490758  0.15824527     0.27900
C524        C  0.95465788  0.21478746  0.14057845    -0.12500
C525        C  0.95461321  0.25092815  0.14905988     0.06000
C526        C  0.92592639  0.26790465  0.16960329    -0.08500
C527        C  0.89672753  0.24908862  0.17856231     0.06900
C528        C  0.89852463  0.21315218  0.17751747    -0.12800
Br529      Br  0.99606756  0.15968039  0.20515430    -0.04900
Br530      Br  0.86868388  0.07367052  0.10446657     0.00700
Br531      Br  0.99268139  0.27801726  0.13041302     0.01200
Br532      Br  0.86110708  0.19129757  0.20674216    -0.03200
Br533      Br  0.98884893  0.07664605  0.21808383     0.01300
Br534      Br  0.86505076  0.15850889  0.10360213    -0.02500
Br535      Br  0.99054297  0.19429456  0.10140472    -0.03400
Br536      Br  0.85264448  0.27221711  0.18467070     0.00600
C537        C  0.75219292  0.34376897  0.18712792     0.02000
C538        C  0.73252717  0.36624762  0.21663577     0.04800
C539        C  0.69748940  0.36173182  0.22105567    -0.11200
C540        C  0.68071359  0.34270263  0.18619842     0.24100
C541        C  0.69983689  0.31885259  0.15730474    -0.11800
C542        C  0.73581640  0.31817519  0.16024340     0.05500
C543        C  0.64648591  0.35652981  0.17333795     0.27900
C544        C  0.61660682  0.33830635  0.18191513    -0.12500
C545        C  0.58440463  0.35438641  0.17521736     0.06000
C546        C  0.58220386  0.38932409  0.16208215    -0.08500
C547        C  0.61196258  0.40732073  0.15295108     0.06900
C548        C  0.64391848  0.39128765  0.15910360    -0.12800
Br549      Br  0.67800720  0.28753115  0.11396291    -0.04900
Br550      Br  0.75015349  0.40970609  0.23740069     0.00700
Br551      Br  0.54378721  0.32843125  0.18580195     0.01200
Br552      Br  0.68441875  0.41705526  0.14633319    -0.03200
Br553      Br  0.76287868  0.28321609  0.12741972     0.01300
Br554      Br  0.67084854  0.38897604  0.26599051    -0.02500
Br555      Br  0.61974437  0.29294152  0.20763755    -0.03400
Br556      Br  0.60881018  0.45321335  0.12846688     0.00600
C557        C  0.89188384  0.06236283  0.96503226     0.02000
C558        C  0.91243128  0.08540152  0.99212914     0.04800
C559        C  0.90339122  0.12076749  0.99805928    -0.11200
C560        C  0.87933793  0.13865817  0.31133506     0.24100
C561        C  0.85974545  0.11466871  0.28409447    -0.11800
C562        C  0.86972980  0.07900797  0.27962966     0.05500
C563        C  0.86550573  0.17431808  0.98466312     0.27900
C564        C  0.83374680  0.18796521  0.00313133    -0.12500
C565        C  0.82831559  0.22435475  0.00981656     0.06000
C566        C  0.85568091  0.24720770  0.00614507    -0.08500
C567        C  0.89028751  0.23766479  0.32284482     0.06900
C568        C  0.89518472  0.20265216  0.30921789    -0.12800
Br569      Br  0.81921836  0.12879338  0.25066181    -0.04900
Br570      Br  0.95375434  0.07011089  0.02438731     0.00700
Br571      Br  0.78326501  0.24314514  0.02189093     0.01200
Br572      Br  0.93625707  0.19107167  0.27501487    -0.03200
Br573      Br  0.84084606  0.04795159  0.24423902     0.01300
Br574      Br  0.93349286  0.14839031  0.03663228    -0.02500
Br575      Br  0.79854115  0.15802189  0.02462016    -0.03400
Br576      Br  0.92833123  0.26843480  0.32230074     0.00600
C577        C  0.58567660  0.47269154  0.33343518     0.02000
C578        C  0.60524333  0.48222536  0.29423362     0.04800
C579        C  0.64138237  0.48497315  0.29742775    -0.11200
C580        C  0.65761197  0.48352574  0.34135820     0.24100
C581        C  0.63184018  0.39931433  0.03004933    -0.11800
C582        C  0.59603427  0.39961290  0.02481502     0.05500
C583        C  0.69509485  0.47346672  0.34555846     0.27900
C584        C  0.70375499  0.43925246  0.35761180    -0.12500
C585        C  0.73781645  0.42687688  0.35476760     0.06000
C586        C  0.76471108  0.44913213  0.34594807    -0.08500
C587        C  0.74451092  0.45301594  0.04166844     0.06900
C588        C  0.70827587  0.45330163  0.04321779    -0.12800
Br589      Br  0.65250115  0.36014943  0.05983663    -0.04900
Br590      Br  0.58318994  0.49140298  0.23641696     0.00700
Br591      Br  0.74750956  0.37820995  0.35640121     0.01200
Br592      Br  0.68493825  0.48939062  0.08023696    -0.03200
Br593      Br  0.57194498  0.36057476  0.04684906     0.01300
Br594      Br  0.66840775  0.49084504  0.24186646    -0.02500
Br595      Br  0.66939165  0.40890134  0.38017911    -0.03400
Br596      Br  0.76962165  0.49163707  0.06576481     0.00600
C597        C  0.86617083  0.37649212  0.40067069     0.30700
C598        C  0.86557009  0.37454124  0.62995784     0.30700
C599        C  0.90097147  0.38367489  0.37518355    -0.05500
C600        C  0.85704046  0.34226899  0.37217876    -0.06300
C601        C  0.84281177  0.40241393  0.37341457    -0.06200
C602        C  0.90102588  0.37807287  0.65553394    -0.05500
C603        C  0.85311888  0.34177247  0.65586360    -0.06300
C604        C  0.84467327  0.40243469  0.66055005    -0.06200
C605        C  0.93176111  0.39188007  0.64243584    -0.31600
N606        N  0.95119664  0.40431307  0.35177376     0.14900
C607        C  0.93195344  0.39649252  0.38979670    -0.31600
H608        H  0.93883639  0.40200095  0.42568555     0.16900
C609        C  0.84683556  0.30836008  0.64122833    -0.30600
N610        N  0.85223218  0.28753840  0.34346791     0.13600
C611        C  0.85314056  0.30775707  0.38342539    -0.30500
C612        C  0.81287761  0.41700912  0.65190474    -0.30800
N613        N  0.79617317  0.42507265  0.69282529     0.14200
H614        H  0.80075723  0.41648197  0.61811872     0.16800
C615        C  0.81478217  0.42313755  0.38611090    -0.30800
H616        H  0.80405054  0.42601150  0.42102588     0.16800
H617        H  0.85383489  0.29773799  0.41820472     0.16800
H618        H  0.93826290  0.39879305  0.60730817     0.16900
H619        H  0.84762171  0.29892433  0.60547815     0.16800
C620        C  0.86485637  0.37768548  0.46257684     0.30700
C621        C  0.86436790  0.37590921  0.56723798     0.30700
C622        C  0.87063702  0.41210135  0.49176235    -0.05500
C623        C  0.83185591  0.36598157  0.48836532    -0.06300
C624        C  0.89177562  0.35476676  0.48774084    -0.06200
C625        C  0.87065149  0.41126226  0.54277775    -0.05500
C626        C  0.83161872  0.36469143  0.53868707    -0.06300
C627        C  0.89137759  0.35347566  0.53839431    -0.06200
C628        C  0.89111038  0.43822060  0.55724761    -0.31600
N629        N  0.90373352  0.45459399  0.51964411     0.14900
C630        C  0.89061087  0.43953774  0.48035758    -0.31600
H631        H  0.89842621  0.44514551  0.44525107     0.16900
C632        C  0.79900385  0.35475126  0.55030919    -0.30600
N633        N  0.77897264  0.35179901  0.51117631     0.13600
C634        C  0.79908673  0.35848856  0.47357757    -0.30500
C635        C  0.90650821  0.32220403  0.54818919    -0.30800
N636        N  0.91618397  0.30534637  0.50776683     0.14200
H637        H  0.90558699  0.31028891  0.58161897     0.16800
C638        C  0.90836437  0.32526390  0.47135837    -0.30800
H639        H  0.90993476  0.31637004  0.43521012     0.16800
H640        H  0.79028902  0.36011775  0.43805618     0.16800
H641        H  0.89942970  0.44271532  0.59274691     0.16900
H642        H  0.79002716  0.35148405  0.58564652     0.16800
C643        C  0.51018772  0.87357212  0.36740838     0.30700
C644        C  0.50951089  0.87032675  0.59591385     0.30700
C645        C  0.50594890  0.90862333  0.34108326    -0.05500
C646        C  0.54048663  0.85716865  0.33839071    -0.06300
C647        C  0.48108315  0.85303514  0.34189374    -0.06200
C648        C  0.50426752  0.90500550  0.62508862    -0.05500
C649        C  0.54092204  0.85538441  0.62257091    -0.06300
C650        C  0.48141379  0.84798818  0.62078521    -0.06200
C651        C  0.48864184  0.93590072  0.61318235    -0.31600
N652        N  0.47878616  0.95702065  0.31674882     0.14900
C653        C  0.48987017  0.93972876  0.35482167    -0.31600
H654        H  0.48378451  0.94751053  0.39049801     0.16900
C655        C  0.57346735  0.84460594  0.60963898    -0.30600
N656        N  0.59123160  0.83981483  0.31068296     0.13600
C657        C  0.57224188  0.84524982  0.35014205    -0.30500
C658        C  0.46666228  0.81701618  0.60652809    -0.30800
N659        N  0.45621747  0.79913138  0.64426342     0.14200
H660        H  0.46668895  0.80661955  0.57097922     0.16800
C661        C  0.46295318  0.82518735  0.35682912    -0.30800
H662        H  0.46207302  0.81660358  0.39242957     0.16800
H663        H  0.58228112  0.84493294  0.38507770     0.16800
H664        H  0.48348504  0.94362347  0.57800123     0.16900
H665        H  0.58431461  0.84483070  0.57481132     0.16800
C666        C  0.51166863  0.87286553  0.53411708     0.30700
C667        C  0.51280394  0.87379412  0.42948715     0.30700
C668        C  0.47935732  0.88646898  0.50710991    -0.05500
C669        C  0.54035338  0.89440949  0.50916363    -0.06300
C670        C  0.51798743  0.83877269  0.50515254    -0.06200
C671        C  0.48012705  0.88684262  0.45690483    -0.05500
C672        C  0.54102357  0.89478849  0.45812151    -0.06300
C673        C  0.51834276  0.83888292  0.45464827    -0.06200
C674        C  0.45023882  0.90320108  0.44333707    -0.31600
N675        N  0.43214099  0.91441470  0.48180453     0.14900
C676        C  0.44880829  0.90292506  0.52037584    -0.31600
H677        H  0.44046335  0.90812186  0.55595988     0.16900
C678        C  0.57482214  0.90252001  0.44673708    -0.30600
N679        N  0.59429493  0.90755365  0.48579625     0.13600
C680        C  0.57349336  0.90270295  0.52341481    -0.30500
C681        C  0.53000541  0.80647981  0.44006874    -0.30800
N682        N  0.53676319  0.78757761  0.47825486     0.14200
H683        H  0.53345469  0.79722328  0.40431999     0.16800
C684        C  0.53010940  0.80704101  0.51743115    -0.30800
H685        H  0.53444977  0.79889364  0.55250201     0.16800
H686        H  0.58251676  0.90272494  0.55898070     0.16800
H687        H  0.44323863  0.90853959  0.40781108     0.16900
H688        H  0.58524612  0.90180454  0.41190315     0.16800
Zn689      Zn  0.95701540  0.97748247  0.34506122     1.49700
Zn690      Zn  0.89242003  0.95349894  0.62524395     1.49400
Zn691      Zn  0.96593127  0.90185605  0.65120213     1.49100
Zn692      Zn  0.90081862  0.90955468  0.38259082     1.49500
O693        O  0.92928002  0.93217445  0.33294969    -1.83500
O694        O  0.93957287  0.02002493  0.31546994    -0.74100
O695        O  0.90922196  0.92479347  0.56967261    -0.73900
O696        O  0.01653280  0.91781498  0.66026920    -0.77400
O697        O  0.88837000  0.00853007  0.62802583    -0.74100
O698        O  0.01351087  0.97189621  0.33980846    -0.73700
O699        O  0.95435188  0.89393108  0.58578163    -0.74300
O700        O  0.91644895  0.85850825  0.40015675    -0.73700
O701        O  0.84627993  0.93413573  0.63563406    -0.74400
O702        O  0.95921705  0.85545417  0.67794292    -0.73800
O703        O  0.85271413  0.90328087  0.36440394    -0.74300
O704        O  0.90162987  0.95014588  0.42712833    -0.74200
O705        O  0.93429812  0.99171390  0.40648542    -0.74000
C706        C  0.91036891  0.02808499  0.29976582     0.77800
C707        C  0.94085238  0.92264898  0.57708076     0.78300
C708        C  0.03305226  0.94440063  0.33757926     0.77200
C709        C  0.94057253  0.83964471  0.38152662     0.77600
C710        C  0.83599284  0.91022137  0.32802676     0.78800
C711        C  0.93095171  0.96141001  0.41939586     0.77800
Zn712      Zn  0.98441053  0.98454553  0.46017729     1.49700
Zn713      Zn  0.92086478  0.97952191  0.52676503     1.49400
Zn714      Zn  0.93688928  0.90784920  0.47853470     1.49100
Zn715      Zn  0.00434777  0.93471685  0.53282187     1.49500
O716        O  0.96122072  0.95213819  0.50041961    -1.83500
O717        O  0.96255976  0.03300134  0.46160223    -0.74100
O718        O  0.87088049  0.96013722  0.51703127    -0.73900
O719        O  0.95708948  0.90609932  0.41555086    -0.73400
O720        O  0.91875439  0.02875252  0.51067424    -0.74100
O721        O  0.98904474  0.95038331  0.41001687    -0.73700
O722        O  0.88088568  0.90811664  0.48404933    -0.74300
O723        O  0.00937028  0.88061084  0.53004077    -0.73700
O724        O  0.94236293  0.98188473  0.58778648    -0.74400
O725        O  0.95910565  0.86406886  0.50161880    -0.73800
O726        O  0.99018680  0.95338011  0.59380276    -0.74300
O727        O  0.05025920  0.96027630  0.52102463    -0.74200
O728        O  0.03087526  0.99676697  0.47082799    -0.74000
C729        C  0.93790280  0.04653266  0.48560058     0.77800
C730        C  0.85945124  0.93193729  0.49912117     0.78300
C731        C  0.95995591  0.93783606  0.41105274     0.77200
C732        C  0.98843005  0.85678328  0.51861025     0.77600
C733        C  0.95811242  0.95364652  0.59183089     0.78800
C734        C  0.05494236  0.98631328  0.49565566     0.77800
C735        C  0.01398964  0.50492016  0.63543527     0.30700
C736        C  0.01495394  0.50806892  0.40654202     0.30700
C737        C  0.00281924  0.47174314  0.66057257    -0.05500
C738        C  0.04802359  0.50882284  0.66227468    -0.06300
C739        C  0.99053826  0.53166058  0.66392088    -0.06200
C740        C  0.00863238  0.47266462  0.37897894    -0.05500
C741        C  0.04743408  0.52054099  0.37939547    -0.06300
C742        C  0.98805314  0.53046631  0.37990771    -0.06200
C743        C  0.99075905  0.44395927  0.39146153    -0.31600
N744        N  0.97927391  0.42687007  0.35254155     0.14900
C745        C  0.98784754  0.44173232  0.64538992    -0.31600
H746        H  0.98304788  0.43433630  0.60942124     0.16900
C747        C  0.08092288  0.51821370  0.39332951    -0.30600
N748        N  0.09921570  0.49187244  0.68815411     0.13600
C749        C  0.07764318  0.49020316  0.65244466    -0.30500
C750        C  0.97066295  0.56043871  0.39331510    -0.30800
N751        N  0.96193569  0.57834636  0.35493627     0.14200
H752        H  0.96876354  0.57093212  0.42860355     0.16800
C753        C  0.97210350  0.56095144  0.65191902    -0.30800
H754        H  0.96813375  0.56994998  0.61703442     0.16800
H755        H  0.08095706  0.47074632  0.62503040     0.16800
H756        H  0.98390351  0.43781592  0.42669578     0.16900
H757        H  0.09038322  0.52506262  0.42714194     0.16800
C758        C  0.01594937  0.50731679  0.57335559     0.30700
C759        C  0.01572235  0.50804255  0.46895221     0.30700
C760        C  0.98435955  0.49348700  0.54562466    -0.05500
C761        C  0.01848269  0.54256152  0.54940073    -0.06300
C762        C  0.04705035  0.48981808  0.54477437    -0.06200
C763        C  0.98400591  0.49428497  0.49547509    -0.05500
C764        C  0.01868742  0.54333251  0.49880193    -0.06300
C765        C  0.04473536  0.48572442  0.49419752    -0.06200
C766        C  0.95204458  0.48332429  0.48190910    -0.31600
N767        N  0.93366537  0.47474837  0.52030601     0.14900
C768        C  0.95250041  0.48236875  0.55896504    -0.31600
H769        H  0.94374870  0.47987031  0.59452752     0.16900
C770        C  0.02149744  0.57793874  0.48928873    -0.30600
N771        N  0.02303058  0.59724598  0.52993355     0.13600
C772        C  0.02246313  0.57582528  0.56625777    -0.30500
C773        C  0.07813872  0.47810274  0.47892371    -0.30800
N774        N  0.10096924  0.48653757  0.51243242     0.14200
H775        H  0.08539583  0.46900938  0.44442168     0.16800
C776        C  0.08209819  0.49652730  0.55025806    -0.30800
H777        H  0.09255577  0.51310827  0.57710123     0.16800
H778        H  0.02422776  0.58419664  0.60251392     0.16800
H779        H  0.94310850  0.48130473  0.44630653     0.16900
H780        H  0.02140530  0.58862060  0.45518593     0.16800
C781        C  0.37183044  0.02502428  0.37161750     0.30700
C782        C  0.36906956  0.01824727  0.59987278     0.30700
C783        C  0.40357212  0.00924646  0.34384780    -0.05500
C784        C  0.34246140  0.00491810  0.34450966    -0.06300
C785        C  0.37056230  0.06003516  0.34486293    -0.06200
C786        C  0.40267690  0.00708155  0.62706801    -0.05500
C787        C  0.34357224  0.99168319  0.62086574    -0.06300
C788        C  0.35748033  0.04965245  0.63177997    -0.06200
C789        C  0.43424737  0.99191563  0.61427997    -0.31600
N790        N  0.45214151  0.98288010  0.31748405     0.14900
C791        C  0.43457754  0.99430719  0.35645218    -0.31600
H792        H  0.44334185  0.99110478  0.39174016     0.16900
C793        C  0.31141865  0.98246581  0.60462487    -0.30600
N794        N  0.29200776  0.98304658  0.31975739     0.13600
C795        C  0.31121474  0.99136764  0.35803217    -0.30500
C796        C  0.35176369  0.08380312  0.62362741    -0.30800
N797        N  0.35218783  0.10199895  0.66466635     0.14200
H798        H  0.35065488  0.09522528  0.58998551     0.16800
C799        C  0.39073724  0.08917976  0.35006653    -0.30800
H800        H  0.41009870  0.09297350  0.37616433     0.16800
H801        H  0.30220035  0.98926109  0.39356351     0.16800
H802        H  0.44362217  0.98816205  0.57890478     0.16900
H803        H  0.30238969  0.98496281  0.56925592     0.16800
C804        C  0.37046108  0.02370091  0.53861629     0.30700
C805        C  0.37058180  0.02596026  0.43434224     0.30700
C806        C  0.38448981  0.99217630  0.50924478    -0.05500
C807        C  0.33568297  0.02896800  0.51200376    -0.06300
C808        C  0.39129442  0.05362317  0.51437756    -0.06200
C809        C  0.38503346  0.99299620  0.45927602    -0.05500
C810        C  0.33574582  0.02980840  0.46150729    -0.06300
C811        C  0.38867842  0.05578885  0.46359262    -0.06200
C812        C  0.39851558  0.96091807  0.44449007    -0.31600
N813        N  0.40766168  0.94218884  0.48226081     0.14900
C814        C  0.39741508  0.96035289  0.52133874    -0.31600
H815        H  0.40001881  0.95135179  0.55645601     0.16900
C816        C  0.30583339  0.04679897  0.44989442    -0.30600
N817        N  0.28711450  0.05609624  0.48893318     0.13600
C818        C  0.30547469  0.04517911  0.52635229    -0.30500
C819        C  0.38610021  0.09141444  0.45713119    -0.30800
N820        N  0.39537554  0.11016847  0.49531169     0.14200
H821        H  0.37245847  0.10358544  0.42948737     0.16800
C822        C  0.39844516  0.08746381  0.53051441    -0.30800
H823        H  0.40429820  0.09517860  0.56603010     0.16800
H824        H  0.29804988  0.04835831  0.56250130     0.16800
H825        H  0.40189814  0.95194807  0.40868528     0.16900
H826        H  0.29928918  0.05222561  0.41450903     0.16800
Zn827      Zn  0.47162284  0.47641269  0.62990674     1.49700
Zn828      Zn  0.41580819  0.48774248  0.37970542     1.49400
Zn829      Zn  0.40966376  0.41172960  0.59792952     1.49100
Zn830      Zn  0.48489699  0.42743940  0.37216669     1.49500
O831        O  0.44569571  0.43219503  0.63974415    -1.83500
O832        O  0.46196155  0.52597261  0.65922119    -0.74100
O833        O  0.36805017  0.46763035  0.36653147    -0.73900
O834        O  0.40433561  0.44889852  0.54146405    -0.73400
O835        O  0.41021780  0.53543956  0.35887725    -0.74100
O836        O  0.44868265  0.48563172  0.57074570    -0.73700
O837        O  0.36228587  0.41628145  0.62668072    -0.74300
O838        O  0.47594504  0.37347207  0.36892856    -0.73700
O839        O  0.44735761  0.49867620  0.43914500    -0.74400
O840        O  0.42050693  0.35877352  0.60175241    -0.73800
O841        O  0.48795632  0.45047625  0.43726932    -0.74300
O842        O  0.53532439  0.43865281  0.34785710    -0.74200
O843        O  0.52352443  0.46298394  0.63643369    -0.74000
C844        C  0.43383452  0.54091781  0.67242673     0.77800
C845        C  0.34866654  0.43209443  0.66198880     0.78300
C846        C  0.41600434  0.47298392  0.57348755     0.77200
C847        C  0.43778271  0.33916660  0.62913743     0.77600
C848        C  0.47636672  0.48202723  0.42112962     0.78800
C849        C  0.53949477  0.43696398  0.65386873     0.77800
Zn850      Zn  0.50003049  0.48653704  0.50192991     1.49700
Zn851      Zn  0.45452893  0.43124730  0.55652478     1.49400
Zn852      Zn  0.42547505  0.51281819  0.51030000     1.49100
Zn853      Zn  0.43436286  0.44671312  0.43579872     1.49500
O854        O  0.45351718  0.46268473  0.49981817    -1.83500
O855        O  0.53487393  0.45178508  0.51846456    -0.74100
O856        O  0.40741864  0.46825857  0.61056125    -0.73900
O857        O  0.45963182  0.55292262  0.50270786    -0.73400
O858        O  0.50848130  0.41666726  0.56544908    -0.74100
O859        O  0.50124977  0.52882534  0.54274293    -0.73700
O860        O  0.39582630  0.51962846  0.57122606    -0.74300
O861        O  0.38228144  0.46270764  0.45045223    -0.73700
O862        O  0.43794761  0.38655452  0.52307070    -0.74400
O863        O  0.38384676  0.51744464  0.46945056    -0.73800
O864        O  0.43618685  0.39232105  0.44469782    -0.74300
O865        O  0.47934142  0.48461085  0.38343360    -0.74200
O866        O  0.51688372  0.50731766  0.44022300    -0.74000
C867        C  0.53593538  0.42556226  0.54367463     0.77800
C868        C  0.39042382  0.49586834  0.59993893     0.78300
C869        C  0.48945946  0.55439056  0.52063687     0.77200
C870        C  0.36613548  0.49087413  0.46275651     0.77600
C871        C  0.43463992  0.37370358  0.48145627     0.78800
C872        C  0.50313089  0.50389111  0.40024641     0.77800
C873        C  0.40168998  0.14750765  0.49522376     0.02000
C874        C  0.42888823  0.15990039  0.46853368     0.04800
C875        C  0.43343476  0.19593981  0.46289752    -0.11200
C876        C  0.41285739  0.22178113  0.48730351     0.24100
C877        C  0.38655316  0.20853146  0.51597818    -0.11800
C878        C  0.37962858  0.17248842  0.51726845     0.05500
C879        C  0.41863595  0.26158568  0.48375185     0.27900
C880        C  0.45213629  0.27646803  0.48216956    -0.12500
C881        C  0.45623366  0.31178844  0.47213895     0.06000
C882        C  0.42873354  0.33552062  0.47727607    -0.08500
C883        C  0.39634447  0.32233383  0.48623674     0.06900
C884        C  0.39050666  0.28641797  0.48191190    -0.12800
Br885      Br  0.36345094  0.23855767  0.56020524    -0.04900
Br886      Br  0.46062948  0.12653633  0.43984044     0.00700
Br887      Br  0.50007395  0.32793110  0.45228821     0.01200
Br888      Br  0.34324369  0.27499880  0.46826344    -0.03200
Br889      Br  0.33814934  0.15776442  0.54581322     0.01300
Br890      Br  0.46725063  0.20791581  0.41890909    -0.02500
Br891      Br  0.49391401  0.25348637  0.50140360    -0.03400
Br892      Br  0.35980849  0.35349614  0.50647403     0.00600
C893        C  0.42818780  0.30287766  0.63222187     0.02000
C894        C  0.44921457  0.27505248  0.61508231     0.04800
C895        C  0.43730464  0.24111982  0.61856631    -0.11200
C896        C  0.41175727  0.23500004  0.65265628     0.24100
C897        C  0.42174057  0.26244801  0.35328737    -0.11800
C898        C  0.42220763  0.29871151  0.35847494     0.05500
C899        C  0.39621076  0.20073476  0.66060297     0.27900
C900        C  0.35986603  0.19756959  0.66412358    -0.12500
C901        C  0.34578539  0.16494604  0.67017268     0.06000
C902        C  0.36682917  0.13538035  0.66800418    -0.08500
C903        C  0.44130761  0.14322922  0.30781282     0.06900
C904        C  0.45735264  0.17570599  0.31197762    -0.12800
Br905      Br  0.38475100  0.23838747  0.38224570    -0.04900
Br906      Br  0.49761730  0.28022390  0.61422076     0.00700
Br907      Br  0.29759264  0.15970115  0.68118151     0.01200
Br908      Br  0.50540662  0.17307644  0.32676276    -0.03200
Br909      Br  0.37967502  0.32334547  0.37185540     0.01300
Br910      Br  0.45666375  0.20539830  0.57775197    -0.02500
Br911      Br  0.32766684  0.23639019  0.65961691    -0.03400
Br912      Br  0.46788791  0.10050872  0.30427784     0.00600
C913        C  0.13809377  0.48998520  0.50722542     0.02000
C914        C  0.15253388  0.52090431  0.49298361     0.04800
C915        C  0.18851834  0.52332601  0.48459298    -0.11200
C916        C  0.21221105  0.49561537  0.49615856     0.24100
C917        C  0.19682492  0.46739015  0.51854505    -0.11800
C918        C  0.16071498  0.46393114  0.52194881     0.05500
C919        C  0.25209878  0.49524614  0.48776847     0.27900
C920        C  0.27014646  0.46553387  0.46765445    -0.12500
C921        C  0.30636406  0.46376352  0.46150382     0.06000
C922        C  0.32692581  0.49268900  0.47098434    -0.08500
C923        C  0.30964740  0.52221651  0.49251661     0.06900
C924        C  0.27354052  0.52286729  0.50234269    -0.12800
Br925      Br  0.22482100  0.43581628  0.55234142    -0.04900
Br926      Br  0.12316383  0.56176193  0.49243219     0.00700
Br927      Br  0.32719430  0.41947213  0.44268139     0.01200
Br928      Br  0.25566175  0.56060863  0.54177131    -0.03200
Br929      Br  0.14147206  0.42486730  0.55160209     0.01300
Br930      Br  0.20162918  0.56633626  0.45832645    -0.02500
Br931      Br  0.24707852  0.42483368  0.44775482    -0.03400
Br932      Br  0.33491790  0.56219900  0.51304972     0.00600
C933        C  0.13333855  0.47758052  0.68506931     0.02000
C934        C  0.14145256  0.45385011  0.36752220     0.04800
C935        C  0.17590819  0.44155554  0.36785850    -0.11200
C936        C  0.19990813  0.44762355  0.67019598     0.24100
C937        C  0.19050871  0.48033486  0.65180219    -0.11800
C938        C  0.15788688  0.49520175  0.66008274     0.05500
C939        C  0.23793314  0.43848680  0.67419839     0.27900
C940        C  0.26390674  0.48394764  0.35514900    -0.12500
C941        C  0.29876720  0.48214590  0.34415303     0.06000
C942        C  0.31100244  0.43240457  0.66880094    -0.08500
C943        C  0.29056711  0.40490556  0.65274263     0.06900
C944        C  0.25435970  0.40815441  0.65378925    -0.12800
Br945      Br  0.22234353  0.50712365  0.61706271    -0.04900
Br946      Br  0.10397997  0.42224437  0.37014371     0.00700
Br947      Br  0.32422526  0.52446585  0.33859741     0.01200
Br948      Br  0.23015184  0.37168241  0.62130128    -0.03200
Br949      Br  0.14605278  0.54011246  0.63655669     0.01300
Br950      Br  0.18049307  0.39798190  0.39814720    -0.02500
Br951      Br  0.24958575  0.52711233  0.38398767    -0.03400
Br952      Br  0.31184756  0.36257771  0.62777845     0.00600
C953        C  0.25224972  0.07079394  0.49004685     0.02000
C954        C  0.23317459  0.07488734  0.44860052     0.04800
C955        C  0.19762985  0.06997411  0.44959443    -0.11200
C956        C  0.18113790  0.06479038  0.49238992     0.24100
C957        C  0.19827719  0.07513658  0.53349329    -0.11800
C958        C  0.23421117  0.07785417  0.53255329     0.05500
C959        C  0.14862043  0.04528804  0.49368351     0.27900
C960        C  0.11673446  0.06163796  0.48663110    -0.12500
C961        C  0.08679544  0.04209886  0.48393650     0.06000
C962        C  0.08759664  0.00618918  0.49443032    -0.08500
C963        C  0.11968265  0.99031921  0.50351357     0.06900
C964        C  0.15010043  0.00931141  0.50045561    -0.12800
Br965      Br  0.17243917  0.09338824  0.58642803    -0.04900
Br966      Br  0.25239406  0.09845301  0.39675453     0.00700
Br967      Br  0.04554530  0.06650766  0.46531879     0.01200
Br968      Br  0.19385007  0.98714739  0.51229314    -0.03200
Br969      Br  0.25651747  0.10013912  0.58477780     0.01300
Br970      Br  0.17077556  0.07519436  0.39441271    -0.02500
Br971      Br  0.11392688  0.11131654  0.48253484    -0.03400
Br972      Br  0.12207551  0.94404658  0.52594694     0.00600
C973        C  0.01921291  0.63439714  0.53438253     0.02000
C974        C  0.98861757  0.65048981  0.52054679     0.04800
C975        C  0.98557243  0.68666520  0.52009524    -0.11200
C976        C  0.01220346  0.70796354  0.53679043     0.24100
C977        C  0.04193165  0.69136411  0.55504823    -0.11800
C978        C  0.04515135  0.65480928  0.55392015     0.05500
C979        C  0.00815739  0.74701286  0.53545669     0.27900
C980        C  0.03166796  0.76731891  0.51071895    -0.12500
C981        C  0.02679449  0.80356046  0.50899626     0.06000
C982        C  0.99677585  0.81980642  0.52739470    -0.08500
C983        C  0.97297134  0.79977951  0.55112575     0.06900
C984        C  0.97921483  0.76424751  0.55672696    -0.12800
Br985      Br  0.07851340  0.71771620  0.58259823    -0.04900
Br986      Br  0.94981422  0.62262647  0.50494203     0.00700
Br987      Br  0.06081124  0.83072517  0.47928703     0.01200
Br988      Br  0.94610651  0.73993698  0.59258851    -0.03200
Br989      Br  0.08459741  0.63231917  0.58048432     0.01300
Br990      Br  0.94635338  0.70581429  0.48971523    -0.02500
Br991      Br  0.06925288  0.74642496  0.47487635    -0.03400
Br992      Br  0.93094551  0.82052158  0.57641384     0.00600
C993        C  0.07202230  0.94656629  0.33868186     0.02000
C994        C  0.08146738  0.97978494  0.64202833     0.04800
C995        C  0.11720265  0.98295057  0.63589690    -0.11200
C996        C  0.14585505  0.94680377  0.33060117     0.24100
C997        C  0.12984535  0.93572952  0.37211554    -0.11800
C998        C  0.09314166  0.93275291  0.37437221     0.05500
C999        C  0.18035026  0.96233657  0.64449242     0.27900
C1000       C  0.20219212  0.93798778  0.61931671    -0.12500
C1001       C  0.23839753  0.94208851  0.61765019     0.06000
C1002       C  0.25588872  0.97322731  0.32064224    -0.08500
C1003       C  0.22938792  0.99756116  0.31205557     0.06900
C1004       C  0.19427645  0.98869901  0.31499214    -0.12800
Br1005     Br  0.15810964  0.92308598  0.42354433    -0.04900
Br1006     Br  0.05085212  0.01445885  0.61634216     0.00700
Br1007     Br  0.26769448  0.90814424  0.58589273     0.01200
Br1008     Br  0.15963757  0.02277585  0.30057024    -0.03200
Br1009     Br  0.07197004  0.91178685  0.42639596     0.01300
Br1010     Br  0.13149336  0.02281942  0.60494166    -0.02500
Br1011     Br  0.18361272  0.89958757  0.58439823    -0.03400
Br1012     Br  0.24152726  0.04335565  0.29590178     0.00600
C1013       C  0.94537418  0.80157656  0.39052374     0.02000
C1014       C  0.91869411  0.78101337  0.40695635     0.04800
C1015       C  0.91949003  0.74460493  0.39836106    -0.11200
C1016       C  0.94890174  0.72964158  0.71066817     0.24100
C1017       C  0.97625742  0.75010982  0.69532555    -0.11800
C1018       C  0.97494371  0.78640708  0.70046841     0.05500
C1019       C  0.95135943  0.68854988  0.36801957     0.27900
C1020       C  0.98135916  0.67009760  0.38259731    -0.12500
C1021       C  0.98602951  0.63489907  0.37158857     0.06000
C1022       C  0.95861728  0.61539841  0.35587688    -0.08500
C1023       C  0.92827176  0.63362761  0.67987737     0.06900
C1024       C  0.92548057  0.67033103  0.68206731    -0.12800
Br1025     Br  0.01438201  0.72995771  0.65991048    -0.04900
Br1026     Br  0.88335071  0.80162003  0.44696038     0.00700
Br1027     Br  0.03156127  0.61421827  0.37031639     0.01200
Br1028     Br  0.88774512  0.69183223  0.64988526    -0.03200
Br1029     Br  0.01621093  0.81104692  0.68639378     0.01300
Br1030     Br  0.88062242  0.71893806  0.41937479    -0.02500
Br1031     Br  0.01723858  0.69024340  0.41927443    -0.03400
Br1032     Br  0.89099968  0.60615587  0.65801184     0.00600
C1033       C  0.51231485  0.58377146  0.51167205     0.02000
C1034       C  0.52987922  0.60032310  0.54877937     0.04800
C1035       C  0.54872638  0.63012964  0.54048747    -0.11200
C1036       C  0.55196820  0.64157764  0.49451145     0.24100
C1037       C  0.54357704  0.61924721  0.45748737    -0.11800
C1038       C  0.51978739  0.59359565  0.46538033     0.05500
C1039       C  0.54984286  0.67910781  0.48578285     0.27900
C1040       C  0.51777143  0.69422745  0.47374103    -0.12500
C1041       C  0.51390579  0.73000208  0.47116178     0.06000
C1042       C  0.54210085  0.75098738  0.47807409    -0.08500
C1043       C  0.57435143  0.73619912  0.48815030     0.06900
C1044       C  0.57848495  0.70012906  0.49082965    -0.12800
Br1045     Br  0.55908138  0.62929873  0.39538291    -0.04900
Br1046     Br  0.52422996  0.58573468  0.61148661     0.00700
Br1047     Br  0.46909954  0.75099829  0.46281227     0.01200
Br1048     Br  0.62328573  0.67942906  0.49911184    -0.03200
Br1049     Br  0.49255718  0.58060573  0.41290759     0.01300
Br1050     Br  0.56750209  0.65672476  0.59200167    -0.02500
Br1051     Br  0.47820793  0.66701073  0.46047061    -0.03400
Br1052     Br  0.61213382  0.76551524  0.50066555     0.00600
C1053       C  0.82073128  0.92801602  0.49415256     0.02000
C1054       C  0.80065991  0.95203269  0.46905464     0.04800
C1055       C  0.76449607  0.94859850  0.46381524    -0.11200
C1056       C  0.74615990  0.92286411  0.48743640     0.24100
C1057       C  0.76697498  0.89850824  0.51197448    -0.11800
C1058       C  0.80338807  0.90068652  0.51435776     0.05500
C1059       C  0.70622608  0.92028599  0.48533639     0.27900
C1060       C  0.68299950  0.94765668  0.50067926    -0.12500
C1061       C  0.64665506  0.94286842  0.50262970     0.06000
C1062       C  0.63179990  0.91174644  0.48672198    -0.08500
C1063       C  0.65445646  0.88514746  0.47017376     0.06900
C1064       C  0.69056588  0.88948214  0.46893183    -0.12800
Br1065     Br  0.74683492  0.86067508  0.54237882    -0.04900
Br1066     Br  0.82319498  0.98947357  0.43968238     0.00700
Br1067     Br  0.61656100  0.97882793  0.52812204     0.01200
Br1068     Br  0.71783928  0.85469489  0.43686843    -0.03200
Br1069     Br  0.82991570  0.86631293  0.54670601     0.01300
Br1070     Br  0.74174283  0.97721250  0.41917899    -0.02500
Br1071     Br  0.70003975  0.99195168  0.52121298    -0.03400
Br1072     Br  0.63599810  0.84192193  0.44953620     0.00600
C1073       C  0.42986667  0.57993895  0.67142000     0.02000
C1074       C  0.41213894  0.61213451  0.37789861     0.04800
C1075       C  0.40566845  0.64834115  0.37708211    -0.11200
C1076       C  0.42794502  0.65319136  0.65665508     0.24100
C1077       C  0.40044254  0.63250311  0.64264684    -0.11800
C1078       C  0.40049388  0.59673995  0.65235959     0.05500
C1079       C  0.42912513  0.69157312  0.64704289     0.27900
C1080       C  0.39156053  0.73049948  0.32765378    -0.12500
C1081       C  0.40326333  0.76476225  0.32272246     0.06000
C1082       C  0.44582517  0.76317359  0.64371089    -0.08500
C1083       C  0.46619290  0.73722014  0.62087726     0.06900
C1084       C  0.45544800  0.70288979  0.61817825    -0.12800
Br1085     Br  0.36450733  0.65219890  0.60517775    -0.04900
Br1086     Br  0.40703530  0.58983361  0.43641982     0.00700
Br1087     Br  0.37111483  0.80259551  0.31601127     0.01200
Br1088     Br  0.47798825  0.67016370  0.57679201    -0.03200
Br1089     Br  0.35893648  0.57237243  0.64166625     0.01300
Br1090     Br  0.39230817  0.67462597  0.43282513    -0.02500
Br1091     Br  0.34325214  0.72202696  0.32937756    -0.03400
Br1092     Br  0.51260908  0.74596786  0.60393229     0.00600
C1093       C  0.62692002  0.84601814  0.31020612     0.02000
C1094       C  0.65203260  0.81915558  0.64064638     0.04800
C1095       C  0.68689087  0.82767851  0.63832817    -0.11200
C1096       C  0.69733901  0.85958220  0.31495261     0.24100
C1097       C  0.67217814  0.88371993  0.33286478    -0.11800
C1098       C  0.63786972  0.87883369  0.32351105     0.05500
C1099       C  0.73411664  0.87039653  0.31481479     0.27900
C1100       C  0.76105835  0.84960640  0.33283279    -0.12500
C1101       C  0.79445415  0.86237130  0.33523347     0.06000
C1102       C  0.80118774  0.89657955  0.32274381    -0.08500
C1103       C  0.77275994  0.92091342  0.64698863     0.06900
C1104       C  0.74099606  0.90569294  0.63986684    -0.12800
Br1105     Br  0.68251450  0.92436980  0.37021797    -0.04900
Br1106     Br  0.63690935  0.77320030  0.62608479     0.00700
Br1107     Br  0.83147791  0.83153530  0.35266519     0.01200
Br1108     Br  0.70807054  0.93038138  0.60312896    -0.03200
Br1109     Br  0.60644295  0.91815365  0.32342878     0.01300
Br1110     Br  0.71605939  0.79589406  0.60229452    -0.02500
Br1111     Br  0.75382536  0.80417918  0.35702610    -0.03400
Br1112     Br  0.77791374  0.96940870  0.63536557     0.00600
C1113       C  0.93349516  0.08414549  0.48827538     0.02000
C1114       C  0.90619553  0.10057970  0.46608972     0.04800
C1115       C  0.90242128  0.13674427  0.46957738    -0.11200
C1116       C  0.92751617  0.15705481  0.49269474     0.24100
C1117       C  0.95507217  0.13965626  0.51520295    -0.11800
C1118       C  0.95641994  0.10344918  0.51527866     0.05500
C1119       C  0.92437253  0.19586001  0.49394308     0.27900
C1120       C  0.95137755  0.21667027  0.47813787    -0.12500
C1121       C  0.94966884  0.25267356  0.48644900     0.06000
C1122       C  0.91918253  0.26862064  0.50262089    -0.08500
C1123       C  0.89047550  0.24872995  0.51047660     0.06900
C1124       C  0.89403957  0.21287896  0.51135823    -0.12800
Br1125     Br  0.99236653  0.16332340  0.54565337    -0.04900
Br1126     Br  0.87462336  0.07317244  0.42996757     0.00700
Br1127     Br  0.98872282  0.28070002  0.47586291     0.01200
Br1128     Br  0.85792007  0.18938235  0.54182368    -0.03200
Br1129     Br  0.98792549  0.07982716  0.55583489     0.01300
Br1130     Br  0.86449526  0.15749149  0.43747375    -0.02500
Br1131     Br  0.98992277  0.19778404  0.44242845    -0.03400
Br1132     Br  0.84551277  0.27033238  0.51547789     0.00600
C1133       C  0.74170008  0.34815718  0.51207093     0.02000
C1134       C  0.72335833  0.35957804  0.55209250     0.04800
C1135       C  0.69015846  0.34767089  0.55809919    -0.11200
C1136       C  0.66899716  0.35004688  0.51945473     0.24100
C1137       C  0.68472706  0.33959850  0.47629359    -0.11800
C1138       C  0.72142115  0.33512526  0.47413222     0.05500
C1139       C  0.63423237  0.36814733  0.52508502     0.27900
C1140       C  0.60399898  0.35053005  0.53562126    -0.12500
C1141       C  0.57250235  0.36905017  0.54488719     0.06000
C1142       C  0.57026347  0.40557299  0.54426334    -0.08500
C1143       C  0.60129378  0.42295859  0.53593598     0.06900
C1144       C  0.63226211  0.40447509  0.52533376    -0.12800
Br1145     Br  0.65620448  0.32738591  0.42434114    -0.04900
Br1146     Br  0.73506389  0.40333064  0.57944907     0.00700
Br1147     Br  0.53236684  0.34411952  0.55824121     0.01200
Br1148     Br  0.67231774  0.42919459  0.50877891    -0.03200
Br1149     Br  0.74175704  0.30830800  0.42382158     0.01300
Br1150     Br  0.69193361  0.30028591  0.57734916    -0.02500
Br1151     Br  0.60526837  0.30083886  0.53552124    -0.03400
Br1152     Br  0.60262659  0.47273956  0.53969260     0.00600
C1153       C  0.90061304  0.06641735  0.29948951     0.02000
C1154       C  0.92156050  0.09105453  0.32313673     0.04800
C1155       C  0.90990721  0.12547100  0.33139962    -0.11200
C1156       C  0.87740457  0.14106006  0.65290295     0.24100
C1157       C  0.85760836  0.11717272  0.62642736    -0.11800
C1158       C  0.86890699  0.08230599  0.61927518     0.05500
C1159       C  0.87014845  0.17745748  0.31822648     0.27900
C1160       C  0.83841572  0.19020363  0.33785203    -0.12500
C1161       C  0.83257885  0.22633557  0.34679984     0.06000
C1162       C  0.85847572  0.25030613  0.33932927    -0.08500
C1163       C  0.88470715  0.23948668  0.66037507     0.06900
C1164       C  0.89055881  0.20474766  0.64789420    -0.12800
Br1165     Br  0.81493599  0.13094134  0.59794072    -0.04900
Br1166     Br  0.96757096  0.08002820  0.34536343     0.00700
Br1167     Br  0.78924739  0.24317568  0.37029443     0.01200
Br1168     Br  0.93043329  0.19457838  0.61069328    -0.03200
Br1169     Br  0.84200067  0.05210272  0.57969378     0.01300
Br1170     Br  0.93676342  0.15383100  0.37311181    -0.02500
Br1171     Br  0.80304363  0.15920657  0.35615365    -0.03400
Br1172     Br  0.92202902  0.27122925  0.66055208     0.00600
C1173       C  0.57760277  0.43579256  0.65877837     0.02000
C1174       C  0.59837893  0.46495877  0.65404142     0.04800
C1175       C  0.63434468  0.46110841  0.65797892    -0.11200
C1176       C  0.64868012  0.43318116  0.68298484     0.24100
C1177       C  0.63653152  0.48306023  0.38118299    -0.11800
C1178       C  0.60217940  0.47310510  0.37705496     0.05500
C1179       C  0.68687228  0.43061198  0.69309883     0.27900
C1180       C  0.70540288  0.39868378  0.68642777    -0.12500
C1181       C  0.74103108  0.39675975  0.69133934     0.06000
C1182       C  0.75955942  0.42691544  0.69726986    -0.08500
C1183       C  0.75678357  0.48398529  0.33692804     0.06900
C1184       C  0.72210588  0.49618027  0.33649459    -0.12800
Br1185     Br  0.65513752  0.49708190  0.44044099    -0.04900
Br1186     Br  0.57919390  0.51069641  0.64602914     0.00700
Br1187     Br  0.76522281  0.35264471  0.68563557     0.01200
Br1188     Br  0.71192497  0.54428104  0.32704283    -0.03200
Br1189     Br  0.57908257  0.45684354  0.43034689     0.01300
Br1190     Br  0.66267658  0.49125788  0.62260564    -0.02500
Br1191     Br  0.68527183  0.35721140  0.66322769    -0.03400
Br1192     Br  0.79367762  0.51431533  0.32442688     0.00600
C1193       C  0.86872320  0.37285623  0.73451543     0.30700
C1194       C  0.87165468  0.37155460  0.96315495     0.30700
C1195       C  0.90223358  0.37705873  0.70600182    -0.05500
C1196       C  0.85476881  0.34102834  0.70637703    -0.06300
C1197       C  0.84661066  0.40163454  0.71148204    -0.06200
C1198       C  0.90596866  0.37758037  0.99035242    -0.05500
C1199       C  0.86014263  0.33868772  0.98912899    -0.06300
C1200       C  0.84860021  0.39896059  0.99171608    -0.06200
C1201       C  0.93625372  0.39239930  0.97777410    -0.31600
N1202       N  0.95054065  0.39987135  0.68124788     0.14900
C1203       C  0.93304823  0.39000582  0.71950522    -0.31600
H1204       H  0.94013565  0.39559606  0.75531174     0.16900
C1205       C  0.85392386  0.30542185  0.97381467    -0.30600
N1206       N  0.84527717  0.28769127  0.67878167     0.13600
C1207       C  0.84978813  0.30732795  0.71824333    -0.30500
C1208       C  0.81711204  0.41335224  0.98112582    -0.30800
N1209       N  0.79935578  0.42234137  0.02095582     0.14200
H1210       H  0.80573027  0.41193079  0.94703825     0.16800
C1211       C  0.81656310  0.41633946  0.72866995    -0.30800
H1212       H  0.80772007  0.41515741  0.76445510     0.16800
H1213       H  0.85336922  0.29704761  0.75256642     0.16800
H1214       H  0.94309999  0.39854700  0.94245679     0.16900
H1215       H  0.85491912  0.29630718  0.93789689     0.16800
C1216       C  0.87053299  0.37246114  0.79619831     0.30700
C1217       C  0.87190458  0.37117375  0.90053827     0.30700
C1218       C  0.87368705  0.40711537  0.82495843    -0.05500
C1219       C  0.83994151  0.35752769  0.82304953    -0.06300
C1220       C  0.89975905  0.35151421  0.81998698    -0.06200
C1221       C  0.87431338  0.40652472  0.87570662    -0.05500
C1222       C  0.84044658  0.35699683  0.87345872    -0.06300
C1223       C  0.90038637  0.35020702  0.87113555    -0.06200
C1224       C  0.89155115  0.43544787  0.88997889    -0.31600
N1225       N  0.90210470  0.45283273  0.85216598     0.14900
C1226       C  0.89088123  0.43610310  0.81297903    -0.31600
H1227       H  0.89857150  0.44166501  0.77775177     0.16900
C1228       C  0.80764400  0.35060202  0.88694663    -0.30600
N1229       N  0.78765018  0.34790505  0.84849313     0.13600
C1230       C  0.80706211  0.35142763  0.80979292    -0.30500
C1231       C  0.91422606  0.31781694  0.87958684    -0.30800
N1232       N  0.92221036  0.30062956  0.83862228     0.14200
H1233       H  0.91327960  0.30555430  0.91289526     0.16800
C1234       C  0.91412222  0.32099736  0.80285059    -0.30800
H1235       H  0.91297717  0.31177972  0.76681208     0.16800
H1236       H  0.79696069  0.35427744  0.77512332     0.16800
H1237       H  0.89962847  0.44060748  0.92542362     0.16900
H1238       H  0.79806909  0.35267879  0.92217476     0.16800
C1239       C  0.50796930  0.86881108  0.70023757     0.30700
C1240       C  0.50666004  0.86821460  0.92883984     0.30700
C1241       C  0.50337005  0.90435777  0.67557087    -0.05500
C1242       C  0.53976767  0.85431907  0.67277513    -0.06300
C1243       C  0.48052517  0.84775057  0.67186211    -0.06200
C1244       C  0.50540503  0.90418848  0.95567874    -0.05500
C1245       C  0.53722216  0.85138189  0.95415803    -0.06300
C1246       C  0.47740534  0.85026851  0.95703712    -0.06200
C1247       C  0.48709952  0.93336330  0.94321931    -0.31600
N1248       N  0.47679131  0.95324759  0.65224434     0.14900
C1249       C  0.48636082  0.93467746  0.68998069    -0.31600
H1250       H  0.47872922  0.94095559  0.72557347     0.16900
C1251       C  0.56817540  0.83837599  0.93848052    -0.30600
N1252       N  0.59178011  0.83824345  0.64867516     0.13600
C1253       C  0.57103277  0.84224422  0.68661964    -0.30500
C1254       C  0.46139652  0.81967636  0.94586010    -0.30800
N1255       N  0.45300050  0.80309239  0.98531999     0.14200
H1256       H  0.46075602  0.80779717  0.91133143     0.16800
C1257       C  0.46431518  0.81776208  0.68347952    -0.30800
H1258       H  0.46169149  0.80836854  0.71842923     0.16800
H1259       H  0.57941185  0.84044076  0.72226063     0.16800
H1260       H  0.47876005  0.93825335  0.90818147     0.16900
H1261       H  0.57721542  0.83779769  0.90266245     0.16800
C1262       C  0.50833006  0.86772869  0.86667649     0.30700
C1263       C  0.50955445  0.86825815  0.76210290     0.30700
C1264       C  0.47596036  0.88035905  0.83969780    -0.05500
C1265       C  0.53622307  0.88962777  0.84164646    -0.06300
C1266       C  0.51499264  0.83309274  0.83748190    -0.06200
C1267       C  0.47660082  0.88049929  0.78947652    -0.05500
C1268       C  0.53697052  0.88989857  0.79076458    -0.06300
C1269       C  0.51551546  0.83322726  0.78693058    -0.06200
C1270       C  0.44545148  0.89394574  0.77599688    -0.31600
N1271       N  0.42657312  0.90332469  0.81467948     0.14900
C1272       C  0.44440020  0.89394029  0.85325946    -0.31600
H1273       H  0.43594619  0.89833997  0.88900252     0.16900
C1274       C  0.57031362  0.89872590  0.77953685    -0.30600
N1275       N  0.58935998  0.90422520  0.81871031     0.13600
C1276       C  0.56886909  0.89870617  0.85620827    -0.30500
C1277       C  0.51801739  0.79903774  0.77157237    -0.30800
N1278       N  0.51832923  0.77862053  0.80923514     0.14200
H1279       H  0.51720585  0.78949510  0.73562532     0.16800
C1280       C  0.51719971  0.79902469  0.84884604    -0.30800
H1281       H  0.51486815  0.78970551  0.88286067     0.16800
H1282       H  0.57797192  0.89836130  0.89170330     0.16800
H1283       H  0.43795144  0.89823319  0.74034740     0.16900
H1284       H  0.58090593  0.89821943  0.74484056     0.16800
Zn1285     Zn  0.95578251  0.98107498  0.68231945     1.49700
Zn1286     Zn  0.88587716  0.94385072  0.95284280     1.49400
Zn1287     Zn  0.95744854  0.89214643  0.98418614     1.49100
Zn1288     Zn  0.90162326  0.91327121  0.71813400     1.49500
O1289       O  0.92784730  0.93638672  0.66908639    -1.83500
O1290       O  0.93905672  0.02377737  0.65333178    -0.74100
O1291       O  0.90256042  0.91223868  0.89880298    -0.73900
O1292       O  0.00909760  0.90757192  0.99305880    -0.77400
O1293       O  0.87985402  0.99987045  0.95375719    -0.74100
O1294       O  0.00996715  0.97407174  0.67661338    -0.73700
O1295       O  0.94492233  0.87837907  0.91942202    -0.74300
O1296       O  0.91777222  0.86162382  0.73005791    -0.73700
O1297       O  0.84143594  0.92320116  0.96585175    -0.74400
O1298       O  0.94859797  0.84923808  0.01707709    -0.73800
O1299       O  0.85276701  0.90749327  0.70224054    -0.74300
O1300       O  0.90573013  0.95358602  0.76296125    -0.74200
O1301       O  0.93832805  0.99619686  0.74543407    -0.74000
C1302       C  0.90955385  0.03225266  0.63904006     0.77800
C1303       C  0.93378443  0.90768900  0.90853885     0.78300
C1304       C  0.02964946  0.94738743  0.66849650     0.77200
C1305       C  0.94035737  0.84243123  0.70869476     0.77600
C1306       C  0.83469468  0.91551186  0.66746491     0.78800
C1307       C  0.93500998  0.96505663  0.75429268     0.77800
Zn1308     Zn  0.98092710  0.97621194  0.81521109     1.49700
Zn1309     Zn  0.91319477  0.96990079  0.86263924     1.49400
Zn1310     Zn  0.92936157  0.90030577  0.79836970     1.49100
Zn1311     Zn  0.99074846  0.91628171  0.85634062     1.49500
O1312       O  0.94864724  0.93983126  0.83307275    -1.83500
O1313       O  0.96435981  0.02554723  0.81695937    -0.74100
O1314       O  0.86416530  0.95120356  0.84834174    -0.73900
O1315       O  0.96052528  0.90947088  0.74329176    -0.73400
O1316       O  0.91381272  0.02149306  0.85092809    -0.74100
O1317       O  0.99388977  0.95339949  0.75444306    -0.73700
O1318       O  0.87409864  0.90516184  0.80024829    -0.74300
O1319       O  0.99311183  0.86553168  0.85645170    -0.73700
O1320       O  0.93829138  0.96643358  0.92150832    -0.74400
O1321       O  0.94550020  0.85203110  0.81978954    -0.73800
O1322       O  0.98571359  0.93622134  0.91827540    -0.74300
O1323       O  0.03449173  0.92948663  0.82539618    -0.74200
O1324       O  0.02208684  0.98064623  0.85364700    -0.74000
C1325       C  0.93734401  0.03961104  0.83415354     0.77800
C1326       C  0.85307137  0.92642136  0.82208665     0.78300
C1327       C  0.96462497  0.94167555  0.74571883     0.77200
C1328       C  0.97296541  0.84309974  0.84057670     0.77600
C1329       C  0.95348780  0.93761077  0.92188315     0.78800
C1330       C  0.04370114  0.95975344  0.83537263     0.77800
C1331       C  0.01118453  0.50625501  0.96837365     0.30700
C1332       C  0.01389179  0.50485697  0.74027393     0.30700
C1333       C  0.00901312  0.47175334  0.99424068    -0.05500
C1334       C  0.04310044  0.52106585  0.99272564    -0.06300
C1335       C  0.98310829  0.52778379  0.99669108    -0.06200
C1336       C  0.00287818  0.47155922  0.71123308    -0.05500
C1337       C  0.04824500  0.51240126  0.71309410    -0.06300
C1338       C  0.99038454  0.53148317  0.71441177    -0.06200
C1339       C  0.98705953  0.44157820  0.72273439    -0.31600
N1340       N  0.97686507  0.42440078  0.68296944     0.14900
C1341       C  0.99160116  0.44294841  0.98016901    -0.31600
H1342       H  0.98360018  0.43754171  0.94472239     0.16900
C1343       C  0.08196007  0.50571689  0.72544429    -0.30600
N1344       N  0.09769350  0.52327786  0.01244946     0.13600
C1345       C  0.07595382  0.52341270  0.97617463    -0.30500
C1346       C  0.97289646  0.56125477  0.72890504    -0.30800
N1347       N  0.96302273  0.57955474  0.69122722     0.14200
H1348       H  0.97097557  0.57094352  0.76447311     0.16800
C1349       C  0.96673390  0.55823390  0.98473592    -0.30800
H1350       H  0.96580101  0.56826241  0.94991515     0.16800
H1351       H  0.08402749  0.52062112  0.94016495     0.16800
H1352       H  0.98106756  0.43439319  0.75792025     0.16900
H1353       H  0.09275457  0.50885396  0.75933314     0.16800
C1354       C  0.01140102  0.50448942  0.90715346     0.30700
C1355       C  0.01336407  0.50409031  0.80279461     0.30700
C1356       C  0.97786830  0.49830174  0.87934123    -0.05500
C1357       C  0.02287587  0.53695477  0.88213608    -0.06300
C1358       C  0.03528034  0.47728089  0.88086071    -0.06200
C1359       C  0.97868253  0.49801866  0.82884223    -0.05500
C1360       C  0.02367538  0.53723419  0.83174789    -0.06300
C1361       C  0.03620189  0.47671512  0.82988894    -0.06200
C1362       C  0.94793678  0.48477422  0.81467665    -0.31600
N1363       N  0.92936832  0.47622734  0.85294168     0.14900
C1364       C  0.94701153  0.48533428  0.89206737    -0.31600
H1365       H  0.93960939  0.47996457  0.92747425     0.16900
C1366       C  0.02791687  0.57126938  0.82123239    -0.30600
N1367       N  0.02943894  0.59069670  0.86159847     0.13600
C1368       C  0.02696781  0.57005996  0.89842872    -0.30500
C1369       C  0.06846578  0.46352699  0.81894530    -0.30800
N1370       N  0.08765636  0.45916202  0.85770363     0.14200
H1371       H  0.07889535  0.46076157  0.78445764     0.16800
C1372       C  0.06694386  0.46495612  0.89516088    -0.30800
H1373       H  0.07590556  0.46483573  0.93068363     0.16800
H1374       H  0.02468008  0.57922972  0.93439651     0.16800
H1375       H  0.94102138  0.47911943  0.77885663     0.16900
H1376       H  0.02691938  0.58166816  0.78691824     0.16800
C1377       C  0.36646168  0.01130547  0.70343227     0.30700
C1378       C  0.36531282  0.01182109  0.93187154     0.30700
C1379       C  0.40083145  0.00392826  0.67699023    -0.05500
C1380       C  0.34219927  0.98833664  0.67162131    -0.06300
C1381       C  0.35708789  0.04660998  0.68171209    -0.06200
C1382       C  0.39757326  0.99810401  0.95873040    -0.05500
C1383       C  0.33682889  0.99338716  0.96062543    -0.06300
C1384       C  0.36078239  0.04812105  0.95733706    -0.06200
C1385       C  0.42844705  0.98320257  0.94443039    -0.31600
N1386       N  0.45031783  0.97922440  0.65276794     0.14900
C1387       C  0.43058108  0.98771676  0.69079537    -0.31600
H1388       H  0.43588149  0.97996187  0.72596876     0.16900
C1389       C  0.30493280  0.98066258  0.94854084    -0.30600
N1390       N  0.29078345  0.97437458  0.64074019     0.13600
C1391       C  0.30914354  0.97795577  0.68083740    -0.30500
C1392       C  0.36800045  0.07976444  0.94016811    -0.30800
N1393       N  0.38386676  0.09854019  0.97342520     0.14200
H1394       H  0.36601953  0.08683361  0.90564464     0.16800
C1395       C  0.35364403  0.07965443  0.69995918    -0.30800
H1396       H  0.35710538  0.08729202  0.73555320     0.16800
H1397       H  0.29815467  0.97700320  0.71458197     0.16800
H1398       H  0.43602741  0.97779903  0.90855857     0.16900
H1399       H  0.29577922  0.97635787  0.91331864     0.16800
C1400       C  0.36727972  0.01028182  0.86961485     0.30700
C1401       C  0.36730886  0.00925574  0.76520086     0.30700
C1402       C  0.36955002  0.97455344  0.84188812    -0.05500
C1403       C  0.33637054  0.02597635  0.84325676    -0.06300
C1404       C  0.39701002  0.02890567  0.84255733    -0.06200
C1405       C  0.36977970  0.97408403  0.79083388    -0.05500
C1406       C  0.33677401  0.02578294  0.79299693    -0.06300
C1407       C  0.39649800  0.02814321  0.79160334    -0.06200
C1408       C  0.38750583  0.94427188  0.77701029    -0.31600
N1409       N  0.39837865  0.92708624  0.81509171     0.14900
C1410       C  0.38669402  0.94470553  0.85403118    -0.31600
H1411       H  0.39383701  0.93870888  0.88925684     0.16900
C1412       C  0.30445744  0.03420790  0.77948616    -0.30600
N1413       N  0.28406179  0.03794298  0.81775082     0.13600
C1414       C  0.30326382  0.03395059  0.85652029    -0.30500
C1415       C  0.41197515  0.05752908  0.77784032    -0.30800
N1416       N  0.42002668  0.07731663  0.81542979     0.14200
H1417       H  0.41160023  0.06682407  0.74285026     0.16800
C1418       C  0.41388781  0.05907868  0.85417092    -0.30800
H1419       H  0.41851631  0.06912688  0.88899331     0.16800
H1420       H  0.29310669  0.03320898  0.89145363     0.16800
H1421       H  0.39570147  0.93824021  0.74157067     0.16900
H1422       H  0.29568262  0.03282989  0.74456955     0.16800
Zn1423     Zn  0.47776015  0.47412646  0.98796758     1.49700
Zn1424     Zn  0.41243277  0.46989642  0.69279220     1.49400
Zn1425     Zn  0.40668687  0.41595921  0.97969002     1.49100
Zn1426     Zn  0.47624604  0.39640753  0.68289593     1.49500
O1427       O  0.43768410  0.44221885  0.02405055    -1.83500
O1428       O  0.46872588  0.52604104  0.99505012    -0.74100
O1429       O  0.36621070  0.45053775  0.68982582    -0.73900
O1430       O  0.42971685  0.43037187  0.90629750    -0.73400
O1431       O  0.40913757  0.52247931  0.68454560    -0.74100
O1432       O  0.47991822  0.46871176  0.91810450    -0.73700
O1433       O  0.35830938  0.43406577  0.99633070    -0.74300
O1434       O  0.45930340  0.35027424  0.65945219    -0.73700
O1435       O  0.42906182  0.46187554  0.76976523    -0.74400
O1436       O  0.41449904  0.36415715  0.98989794    -0.73800
O1437       O  0.46824823  0.40871283  0.76674735    -0.74300
O1438       O  0.52346813  0.41133604  0.66936424    -0.74200
O1439       O  0.52742922  0.46224708  0.00099810    -0.74000
C1440       C  0.44318893  0.54380981  0.01085164     0.77800
C1441       C  0.34497680  0.45334040  0.02931249     0.78300
C1442       C  0.45838616  0.45033203  0.89654665     0.77200
C1443       C  0.43453488  0.34684281  0.01612165     0.77600
C1444       C  0.44955816  0.43617960  0.74840446     0.78800
C1445       C  0.54058728  0.43248965  0.00644724     0.77800
Zn1446     Zn  0.47939810  0.45754812  0.81440797     1.49700
Zn1447     Zn  0.46375267  0.39282356  0.87926842     1.49400
Zn1448     Zn  0.40826763  0.47274945  0.87377970     1.49100
Zn1449     Zn  0.40777165  0.40727588  0.78147630     1.49500
O1450       O  0.43462672  0.42721078  0.83095871    -1.83500
O1451       O  0.52369674  0.43653606  0.83858726    -0.74100
O1452       O  0.46333879  0.41698027  0.95797912    -0.73900
O1453       O  0.42328891  0.52034433  0.85631380    -0.73400
O1454       O  0.51218986  0.38405488  0.85945515    -0.74100
O1455       O  0.47667412  0.50787476  0.83421599    -0.73700
O1456       O  0.42381532  0.46973327  0.95539169    -0.74300
O1457       O  0.35970824  0.43256305  0.79415021    -0.73700
O1458       O  0.43936444  0.34968119  0.87029080    -0.74400
O1459       O  0.35921858  0.46767930  0.85838904    -0.73800
O1460       O  0.41110968  0.35476830  0.80177936    -0.74300
O1461       O  0.43799449  0.42718424  0.71456077    -0.74200
O1462       O  0.48669058  0.46338911  0.74157012    -0.74000
C1463       C  0.53387132  0.40661985  0.85016232     0.77800
C1464       C  0.44366246  0.44221675  0.93673828     0.78300
C1465       C  0.45317552  0.52982854  0.84558276     0.77200
C1466       C  0.34391373  0.45330009  0.82384011     0.77600
C1467       C  0.42223347  0.33685798  0.83642021     0.78800
C1468       C  0.46589491  0.44953677  0.71235655     0.77800
C1469       C  0.41718089  0.11449640  0.81444285     0.02000
C1470       C  0.44520505  0.13390844  0.80169725     0.04800
C1471       C  0.44210104  0.17024526  0.80011940    -0.11200
C1472       C  0.41097867  0.18791016  0.81510468     0.24100
C1473       C  0.38208802  0.16751681  0.82430998    -0.11800
C1474       C  0.38514976  0.13144417  0.82160028     0.05500
C1475       C  0.41052554  0.22644527  0.82588434     0.27900
C1476       C  0.43785982  0.24071151  0.85132078    -0.12500
C1477       C  0.44325734  0.27633476  0.85125160     0.06000
C1478       C  0.41675289  0.29920028  0.83743054    -0.08500
C1479       C  0.38565289  0.28532352  0.82345329     0.06900
C1480       C  0.38414199  0.24986781  0.81187476    -0.12800
Br1481     Br  0.33720544  0.18590741  0.84282211    -0.04900
Br1482     Br  0.48772586  0.10991147  0.78625462     0.00700
Br1483     Br  0.48899172  0.29174780  0.86168702     0.01200
Br1484     Br  0.35093305  0.23814438  0.76646263    -0.03200
Br1485     Br  0.34375618  0.10607910  0.82392982     0.01300
Br1486     Br  0.48224663  0.19471434  0.77994439    -0.02500
Br1487     Br  0.46805565  0.21172028  0.88632911    -0.03400
Br1488     Br  0.34515693  0.31447653  0.82073494     0.00600
C1489       C  0.43487400  0.30803931  0.01248681     0.02000
C1490       C  0.46605970  0.28918553  0.00650152     0.04800
C1491       C  0.46667654  0.25326512  0.99473691    -0.11200
C1492       C  0.43564658  0.23427930  0.99746456     0.24100
C1493       C  0.40391948  0.26261208  0.68352886    -0.11800
C1494       C  0.40245079  0.29526760  0.66477987     0.05500
C1495       C  0.42911319  0.19733760  0.97914017     0.27900
C1496       C  0.39790153  0.19197124  0.95413122    -0.12500
C1497       C  0.38203253  0.15985173  0.95525488     0.06000
C1498       C  0.40089576  0.13059032  0.96749662    -0.08500
C1499       C  0.40255480  0.13822903  0.66605876     0.06900
C1500       C  0.41719331  0.17072565  0.66562733    -0.12800
Br1501     Br  0.43708508  0.26357144  0.73205646    -0.04900
Br1502     Br  0.50821949  0.31323856  0.00879221     0.00700
Br1503     Br  0.33292052  0.15686694  0.95122733     0.01200
Br1504     Br  0.46590864  0.17226077  0.67492723    -0.03200
Br1505     Br  0.37725923  0.33079629  0.69945400     0.01300
Br1506     Br  0.51110935  0.23438744  0.97577272    -0.02500
Br1507     Br  0.37297915  0.22980267  0.92599176    -0.03400
Br1508     Br  0.43190028  0.09736622  0.66184822     0.00600
C1509       C  0.12407708  0.46536070  0.85814794     0.02000
C1510       C  0.13628030  0.49617692  0.84079794     0.04800
C1511       C  0.17028193  0.49830736  0.82546042    -0.11200
C1512       C  0.19548143  0.47359880  0.84010323     0.24100
C1513       C  0.18345017  0.44729448  0.86953903    -0.11800
C1514       C  0.14803096  0.44128506  0.87448694     0.05500
C1515       C  0.23343159  0.47256562  0.82592261     0.27900
C1516       C  0.24826439  0.44093880  0.80769215    -0.12500
C1517       C  0.28393037  0.43539514  0.80375057     0.06000
C1518       C  0.30631527  0.46105098  0.81939185    -0.08500
C1519       C  0.29223199  0.49402194  0.83296719     0.06900
C1520       C  0.25629867  0.50024575  0.83451861    -0.12800
Br1521     Br  0.21535698  0.41896361  0.90290349    -0.04900
Br1522     Br  0.10759195  0.53724498  0.84360803     0.00700
Br1523     Br  0.30138472  0.39128240  0.77886666     0.01200
Br1524     Br  0.24085085  0.54790618  0.84380546    -0.03200
Br1525     Br  0.13216255  0.40052262  0.90336653     0.01300
Br1526     Br  0.17579920  0.53252956  0.77918421    -0.02500
Br1527     Br  0.22018677  0.40320183  0.78966663    -0.03400
Br1528     Br  0.32211017  0.53195774  0.84771373     0.00600
C1529       C  0.13061017  0.50584587  0.00967854     0.02000
C1530       C  0.14000144  0.44319368  0.69643022     0.04800
C1531       C  0.17288336  0.42790561  0.68925380    -0.11200
C1532       C  0.19697023  0.47624835  0.01786651     0.24100
C1533       C  0.18954412  0.50110271  0.98407940    -0.11800
C1534       C  0.15774335  0.51885477  0.98419130     0.05500
C1535       C  0.23411381  0.46822461  0.02869834     0.27900
C1536       C  0.25947576  0.46406277  0.69418590    -0.12500
C1537       C  0.29495861  0.46231959  0.68873380     0.06000
C1538       C  0.30684305  0.45771043  0.03199229    -0.08500
C1539       C  0.28506359  0.42987597  0.02158678     0.06900
C1540       C  0.24907694  0.43473532  0.02120798    -0.12800
Br1541     Br  0.22356224  0.51123051  0.93930702    -0.04900
Br1542     Br  0.10234664  0.41607155  0.71703243     0.00700
Br1543     Br  0.32025666  0.50413099  0.70371363     0.01200
Br1544     Br  0.22171510  0.39440130  0.01000857    -0.03200
Br1545     Br  0.15187726  0.56100846  0.95143029     0.01300
Br1546     Br  0.17637640  0.37944206  0.70244007    -0.02500
Br1547     Br  0.24193774  0.50503549  0.72571958    -0.03400
Br1548     Br  0.30397634  0.38444409  0.00690518     0.00600
C1549       C  0.24855715  0.03057714  0.81609596     0.02000
C1550       C  0.23879064  0.99739826  0.80219138     0.04800
C1551       C  0.20443865  0.99081247  0.79535681    -0.11200
C1552       C  0.17885408  0.01378008  0.81453925     0.24100
C1553       C  0.18911395  0.04690963  0.83180844    -0.11800
C1554       C  0.22373179  0.05591740  0.82822692     0.05500
C1555       C  0.14318870  0.00076101  0.81920876     0.27900
C1556       C  0.11407370  0.01856858  0.80104370    -0.12500
C1557       C  0.08166142  0.00391916  0.80401498     0.06000
C1558       C  0.07792523  0.97158212  0.82412132    -0.08500
C1559       C  0.10672895  0.95207298  0.83644185     0.06900
C1560       C  0.13864512  0.96747142  0.83807379    -0.12800
Br1561     Br  0.15871113  0.07954589  0.86472748    -0.04900
Br1562     Br  0.27190404  0.95959292  0.79801184     0.00700
Br1563     Br  0.04257943  0.02625665  0.77524449     0.01200
Br1564     Br  0.17516729  0.94212808  0.86862012    -0.03200
Br1565     Br  0.23796611  0.10250513  0.84010965     0.01300
Br1566     Br  0.19395045  0.94980104  0.75927969    -0.02500
Br1567     Br  0.11605234  0.06263546  0.77129212    -0.03400
Br1568     Br  0.10298700  0.90348678  0.84765100     0.00600
C1569       C  0.02254871  0.62704646  0.86560938     0.02000
C1570       C  0.98969366  0.63975938  0.85611914     0.04800
C1571       C  0.98322874  0.67535348  0.85586936    -0.11200
C1572       C  0.00822138  0.69898034  0.87204029     0.24100
C1573       C  0.03956693  0.68504329  0.88932238    -0.11800
C1574       C  0.04719999  0.64938780  0.88351615     0.05500
C1575       C  0.00153761  0.73736381  0.86836344     0.27900
C1576       C  0.02401313  0.75852239  0.84314027    -0.12500
C1577       C  0.01467455  0.79317681  0.83507409     0.06000
C1578       C  0.98198912  0.80649224  0.84832388    -0.08500
C1579       C  0.96003226  0.78614117  0.87408849     0.06900
C1580       C  0.97050298  0.75266396  0.88615873    -0.12800
Br1581     Br  0.07183626  0.71307996  0.92326031    -0.04900
Br1582     Br  0.95284867  0.60802557  0.84662200     0.00700
Br1583     Br  0.04712540  0.82258761  0.80556280     0.01200
Br1584     Br  0.94167203  0.72872122  0.92824170    -0.03200
Br1585     Br  0.09115496  0.63033114  0.90040717     0.01300
Br1586     Br  0.94148374  0.68977898  0.82664636    -0.02500
Br1587     Br  0.06748109  0.74162203  0.81728297    -0.03400
Br1588     Br  0.91602158  0.80462827  0.89522970     0.00600
C1589       C  0.06802422  0.95125405  0.66458357     0.02000
C1590       C  0.08512237  0.91265972  0.97911199     0.04800
C1591       C  0.12140195  0.91695285  0.97624549    -0.11200
C1592       C  0.14135407  0.95745415  0.65065663     0.24100
C1593       C  0.12742922  0.92829472  0.67277088    -0.11800
C1594       C  0.09145624  0.92577629  0.68037751     0.05500
C1595       C  0.17613244  0.95348878  0.98950940     0.27900
C1596       C  0.20134092  0.93044488  0.00828128    -0.12500
C1597       C  0.23710065  0.93750775  0.00564212     0.06000
C1598       C  0.25365886  0.97117011  0.63874697    -0.08500
C1599       C  0.23202926  0.99714658  0.65859446     0.06900
C1600       C  0.19649692  0.99227598  0.66340031    -0.12800
Br1601     Br  0.15636902  0.89078438  0.69366751    -0.04900
Br1602     Br  0.06741153  0.86845779  0.95921062     0.00700
Br1603     Br  0.27061111  0.90513562  0.02848173     0.01200
Br1604     Br  0.17199956  0.02637120  0.70079374    -0.03200
Br1605     Br  0.07438498  0.88794881  0.71525296     0.01300
Br1606     Br  0.14907009  0.88053489  0.94596328    -0.02500
Br1607     Br  0.18761466  0.89313463  0.04693479    -0.03400
Br1608     Br  0.25089387  0.04103049  0.67610997     0.00600
C1609       C  0.94489138  0.80415231  0.71703145     0.02000
C1610       C  0.91867768  0.78413818  0.73622957     0.04800
C1611       C  0.92039012  0.74741377  0.73267721    -0.11200
C1612       C  0.94238745  0.72628932  0.04988555     0.24100
C1613       C  0.96937725  0.74787648  0.03615918    -0.11800
C1614       C  0.96746905  0.78378918  0.04446767     0.05500
C1615       C  0.95131444  0.69023281  0.70464007     0.27900
C1616       C  0.98128136  0.67181915  0.71870452    -0.12500
C1617       C  0.98633856  0.63672597  0.70710390     0.06000
C1618       C  0.95883928  0.61674420  0.69283241    -0.08500
C1619       C  0.92286250  0.63081549  0.01522076     0.06900
C1620       C  0.91956314  0.66738709  0.01892778    -0.12800
Br1621     Br  0.00804271  0.73065373  0.99929822    -0.04900
Br1622     Br  0.88084886  0.80619458  0.77022029     0.00700
Br1623     Br  0.03213512  0.61684833  0.70473177     0.01200
Br1624     Br  0.88077134  0.68874056  0.98873788    -0.03200
Br1625     Br  0.00819336  0.81021841  0.03376021     0.01300
Br1626     Br  0.88257103  0.72267096  0.75838793    -0.02500
Br1627     Br  0.01587130  0.69211788  0.75664872    -0.03400
Br1628     Br  0.88522728  0.60301424  0.99551044     0.00600
C1629       C  0.46146762  0.56700535  0.84492066     0.02000
C1630       C  0.49259717  0.57820835  0.86387433     0.04800
C1631       C  0.50443885  0.61159501  0.85575201    -0.11200
C1632       C  0.48407516  0.63534086  0.83010690     0.24100
C1633       C  0.45185339  0.62403840  0.81307665    -0.11800
C1634       C  0.44057765  0.59045465  0.82096778     0.05500
C1635       C  0.49444974  0.67235117  0.82358179     0.27900
C1636       C  0.47138085  0.69978640  0.83742087    -0.12500
C1637       C  0.47762776  0.73376931  0.82553775     0.06000
C1638       C  0.50978042  0.74267013  0.80887604    -0.08500
C1639       C  0.53381061  0.71640381  0.79620728     0.06900
C1640       C  0.52572564  0.68119437  0.80126567    -0.12800
Br1641     Br  0.42269396  0.65310209  0.77607983    -0.04900
Br1642     Br  0.51807637  0.54816810  0.90430842     0.00700
Br1643     Br  0.44115027  0.76826142  0.82865730     0.01200
Br1644     Br  0.55676560  0.64643365  0.77355856    -0.03200
Br1645     Br  0.39696656  0.57622922  0.79638910     0.01300
Br1646     Br  0.54896206  0.62263969  0.88060627    -0.02500
Br1647     Br  0.43168250  0.69286599  0.87571909    -0.03400
Br1648     Br  0.57721499  0.72926066  0.77086280     0.00600
C1649       C  0.81471187  0.92273330  0.81745435     0.02000
C1650       C  0.79438324  0.94774168  0.79494965     0.04800
C1651       C  0.75787870  0.94632636  0.79467693    -0.11200
C1652       C  0.74022893  0.91987689  0.81823081     0.24100
C1653       C  0.76164937  0.89438848  0.83966236    -0.11800
C1654       C  0.79798132  0.89543620  0.83818254     0.05500
C1655       C  0.70045985  0.91706615  0.81837745     0.27900
C1656       C  0.67735061  0.94434767  0.83456736    -0.12500
C1657       C  0.64102922  0.93999141  0.83444781     0.06000
C1658       C  0.62653460  0.90847484  0.81989577    -0.08500
C1659       C  0.64897661  0.88115400  0.80596278     0.06900
C1660       C  0.68479468  0.88585809  0.80298927    -0.12800
Br1661     Br  0.74276518  0.85700287  0.87245984    -0.04900
Br1662     Br  0.81736805  0.98307924  0.76162469     0.00700
Br1663     Br  0.61021316  0.97701496  0.85490687     0.01200
Br1664     Br  0.71088551  0.85047244  0.77026018    -0.03200
Br1665     Br  0.82550432  0.85897240  0.86477577     0.01300
Br1666     Br  0.73378978  0.98059369  0.75925434    -0.02500
Br1667     Br  0.69414257  0.98717015  0.86115198    -0.03400
Br1668     Br  0.63054416  0.83622083  0.79295324     0.00600
C1669       C  0.44286558  0.58189090  0.00606480     0.02000
C1670       C  0.45702017  0.60082355  0.68615085     0.04800
C1671       C  0.45637192  0.63670188  0.67793112    -0.11200
C1672       C  0.44061601  0.65526946  0.00135568     0.24100
C1673       C  0.41449719  0.63509805  0.98067383    -0.11800
C1674       C  0.41598742  0.59868140  0.98266780     0.05500
C1675       C  0.44190237  0.69385339  0.99578943     0.27900
C1676       C  0.40855868  0.71720771  0.67110146    -0.12500
C1677       C  0.41614053  0.75286937  0.66780092     0.06000
C1678       C  0.44832670  0.76638915  0.98737500    -0.08500
C1679       C  0.47546902  0.74360664  0.97484390     0.06900
C1680       C  0.47095469  0.70796810  0.97453599    -0.12800
Br1681     Br  0.37645314  0.65616472  0.94871926    -0.04900
Br1682     Br  0.49349369  0.58081873  0.72269172     0.00700
Br1683     Br  0.38637154  0.78758436  0.69709684     0.01200
Br1684     Br  0.50531279  0.67931548  0.94386851    -0.03200
Br1685     Br  0.38297255  0.57118858  0.94936414     0.01300
Br1686     Br  0.49448100  0.66391234  0.69715485    -0.02500
Br1687     Br  0.37011104  0.70418380  0.70842796    -0.03400
Br1688     Br  0.52084893  0.76058789  0.96638345     0.00600
C1689       C  0.62742611  0.84485724  0.65163619     0.02000
C1690       C  0.64790309  0.81517519  0.95612503     0.04800
C1691       C  0.68313568  0.82172164  0.96048674    -0.11200
C1692       C  0.69769051  0.86033990  0.65708182     0.24100
C1693       C  0.67164775  0.88418146  0.67365686    -0.11800
C1694       C  0.63749523  0.87814375  0.66414329     0.05500
C1695       C  0.73433807  0.87210683  0.65603256     0.27900
C1696       C  0.76277219  0.85191395  0.67174356    -0.12500
C1697       C  0.79574800  0.86570481  0.67125022     0.06000
C1698       C  0.80035668  0.90091451  0.66284288    -0.08500
C1699       C  0.76845806  0.91195914  0.97709930     0.06900
C1700       C  0.73662040  0.89717634  0.97049981    -0.12800
Br1701     Br  0.68024498  0.92640185  0.70833166    -0.04900
Br1702     Br  0.63183050  0.77650363  0.91910471     0.00700
Br1703     Br  0.83520348  0.83505157  0.67564192     0.01200
Br1704     Br  0.70308439  0.92277923  0.93575680    -0.03200
Br1705     Br  0.60538643  0.91678403  0.66103276     0.01300
Br1706     Br  0.71455079  0.78957932  0.92859290    -0.02500
Br1707     Br  0.75927213  0.80610199  0.69625491    -0.03400
Br1708     Br  0.77476125  0.95977016  0.96191636     0.00600
C1709       C  0.93410297  0.07768509  0.83488701     0.02000
C1710       C  0.90735020  0.09393785  0.81129618     0.04800
C1711       C  0.90622720  0.13009003  0.80809594    -0.11200
C1712       C  0.93210709  0.15106291  0.82839221     0.24100
C1713       C  0.95931916  0.13390816  0.85232490    -0.11800
C1714       C  0.95946813  0.09768673  0.85648706     0.05500
C1715       C  0.92929047  0.19029438  0.82677364     0.27900
C1716       C  0.95665233  0.21076579  0.81057435    -0.12500
C1717       C  0.95465344  0.24717840  0.81606286     0.06000
C1718       C  0.92460752  0.26371137  0.83299330    -0.08500
C1719       C  0.89578969  0.24422469  0.84131069     0.06900
C1720       C  0.89870435  0.20824401  0.84222469    -0.12800
Br1721     Br  0.99713324  0.15806316  0.88096678    -0.04900
Br1722     Br  0.87287915  0.06610413  0.78122085     0.00700
Br1723     Br  0.99244052  0.27533498  0.79932581     0.01200
Br1724     Br  0.86096752  0.18634292  0.87115091    -0.03200
Br1725     Br  0.99348435  0.07513055  0.89466677     0.01300
Br1726     Br  0.86954417  0.14916267  0.77229986    -0.02500
Br1727     Br  0.99648826  0.19097023  0.77830807    -0.03400
Br1728     Br  0.85139423  0.26692141  0.84787833     0.00600
C1729       C  0.75181666  0.35567442  0.84924159     0.02000
C1730       C  0.74050103  0.38924154  0.86113530     0.04800
C1731       C  0.70569681  0.39637371  0.86768770    -0.11200
C1732       C  0.68095747  0.37217119  0.85271392     0.24100
C1733       C  0.69320363  0.33951617  0.83389168    -0.11800
C1734       C  0.72834804  0.33068415  0.83593718     0.05500
C1735       C  0.64327102  0.38177090  0.85571523     0.27900
C1736       C  0.61930935  0.36023423  0.87709232    -0.12500
C1737       C  0.58403743  0.36883705  0.87656893     0.06000
C1738       C  0.57148470  0.39820509  0.85281272    -0.08500
C1739       C  0.59546408  0.41973722  0.83164828     0.06900
C1740       C  0.63077567  0.41249974  0.83527852    -0.12800
Br1741     Br  0.66407595  0.30695426  0.80204940    -0.04900
Br1742     Br  0.77269098  0.42620640  0.86499679     0.00700
Br1743     Br  0.55402513  0.33964709  0.91044216     0.01200
Br1744     Br  0.66105295  0.44213836  0.80284735    -0.03200
Br1745     Br  0.74522547  0.28469714  0.82017109     0.01300
Br1746     Br  0.69419354  0.43790336  0.90295313    -0.02500
Br1747     Br  0.63332560  0.31853062  0.90840273    -0.03400
Br1748     Br  0.58128389  0.45738201  0.79197616     0.00600
C1749       C  0.90019082  0.07024961  0.63836211     0.02000
C1750       C  0.92148219  0.09488588  0.66108518     0.04800
C1751       C  0.90947326  0.12899551  0.67002991    -0.11200
C1752       C  0.87357581  0.13533118  0.97736102     0.24100
C1753       C  0.85330866  0.11237908  0.94932512    -0.11800
C1754       C  0.86260182  0.07660384  0.94308701     0.05500
C1755       C  0.86695298  0.17908939  0.65987312     0.27900
C1756       C  0.83525826  0.19084706  0.68099957    -0.12500
C1757       C  0.82769128  0.22681896  0.68654404     0.06000
C1758       C  0.85240768  0.25106484  0.67562793    -0.08500
C1759       C  0.88762683  0.23353662  0.99212977     0.06900
C1760       C  0.89134335  0.19883819  0.97677321    -0.12800
Br1761     Br  0.81276411  0.12835661  0.91729368    -0.04900
Br1762     Br  0.96841408  0.08425463  0.68005579     0.00700
Br1763     Br  0.78410698  0.24355085  0.71046962     0.01200
Br1764     Br  0.93169674  0.18722110  0.94146469    -0.03200
Br1765     Br  0.83575959  0.04758482  0.90190039     0.01300
Br1766     Br  0.93794809  0.15832626  0.70839457    -0.02500
Br1767     Br  0.80222287  0.15944712  0.70525759    -0.03400
Br1768     Br  0.92689065  0.26275161  0.99523586     0.00600
C1769       C  0.57885228  0.42748425  0.00353759     0.02000
C1770       C  0.59900651  0.45294834  0.98329915     0.04800
C1771       C  0.63435862  0.45457563  0.99228184    -0.11200
C1772       C  0.65162386  0.42727106  0.01526108     0.24100
C1773       C  0.62582244  0.40671959  0.69463906    -0.11800
C1774       C  0.59364670  0.40519426  0.67418161     0.05500
C1775       C  0.69015354  0.42619546  0.02024886     0.27900
C1776       C  0.70969671  0.39713204  0.00262626    -0.12500
C1777       C  0.74475099  0.39457860  0.00997523     0.06000
C1778       C  0.76267332  0.42379485  0.02354424    -0.08500
C1779       C  0.74221593  0.45828378  0.70755871     0.06900
C1780       C  0.70602482  0.46009920  0.70774127    -0.12800
Br1781     Br  0.63340738  0.37339205  0.74183350    -0.04900
Br1782     Br  0.57961473  0.48306260  0.93736202     0.00700
Br1783     Br  0.76752237  0.34978920  0.00766690     0.01200
Br1784     Br  0.68429750  0.50285778  0.73123488    -0.03200
Br1785     Br  0.57386681  0.35980240  0.66728829     0.01300
Br1786     Br  0.65731057  0.49553995  0.97285363    -0.02500
Br1787     Br  0.69165320  0.36100963  0.96391733    -0.03400
Br1788     Br  0.76882171  0.49838723  0.72154107     0.00600
loop_ 
_geom_bond_atom_site_label_1 
_geom_bond_atom_site_label_2 
_geom_bond_distance 
_geom_bond_site_symmetry_2 
_ccdc_geom_bond_type 
C1            C3   1.563       .  S
C1            C5   1.553       .  S
C1            C4   1.588       .  S
C1           C24   1.769       .  S
C2            C6   1.560       .  S
C2            C8   1.575       .  S
C2            C7   1.575       .  S
C2           C25   1.777       .  S
C3           C11   1.378       .  A
C3         C1198   1.447   1_554  A
C4           C15   1.396       .  A
C4         C1199   1.446   1_554  A
C5           C19   1.373       .  A
C5         C1200   1.455   1_554  A
C6            C9   1.373       .  A
C6          C599   1.443       .  A
C7           C13   1.376       .  A
C7          C600   1.445       .  A
C8           C16   1.382       .  A
C8          C601   1.445       .  A
C9           H22   1.080       .  S
C9          N606   1.362       .  A
N10          C11   1.360       .  A
N10        C1201   1.367   1_554  A
N10         N148   1.422       .  S
C11          H12   1.080       .  S
C13          H23   1.069       .  S
C13         N610   1.360       .  A
N14          C15   1.368       .  A
N14        C1205   1.360   1_554  A
N14         C566   1.455       .  S
C15          H21   1.080       .  S
C16          H18   1.077       .  S
C16          N17   1.364       .  A
N17         C615   1.364       .  A
N17         C586   1.453       .  S
C19          H20   1.082       .  S
C19        N1209   1.349       .  A
C24          C26   1.576       .  S
C24          C28   1.549       .  S
C24          C27   1.565       .  S
C25          C29   1.571       .  S
C25          C31   1.580       .  S
C25          C30   1.543       .  S
C26          C34   1.382       .  A
C26          C29   1.460       .  A
C27          C38   1.377       .  A
C27          C30   1.439       .  A
C28          C42   1.366       .  A
C28          C31   1.456       .  A
C29          C32   1.378       .  A
C30          C36   1.363       .  A
C31          C39   1.380       .  A
C32          H45   1.078       .  S
C32          N33   1.358       .  A
N33          C34   1.361       .  A
N33         N171   1.419       .  S
C34          H35   1.079       .  S
C36          H46   1.083       .  S
C36          N37   1.353       .  A
N37          C38   1.362       .  A
N37         C537   1.434       .  S
C38          H44   1.081       .  S
C39          H41   1.075       .  S
C39          N40   1.361       .  A
N40          C42   1.346       .  A
N40         C526   1.433       .  S
C42          H43   1.082       .  S
C47          C49   1.575       .  S
C47          C51   1.573       .  S
C47          C50   1.559       .  S
C47          C71   1.786       .  S
C48          C52   1.573       .  S
C48          C54   1.599       .  S
C48          C53   1.548       .  S
C48          C70   1.780       .  S
C49          C57   1.387       .  A
C49        C1244   1.457   1_554  A
C50          C61   1.365       .  A
C50        C1245   1.438   1_554  A
C51          C65   1.379       .  A
C51        C1246   1.468   1_554  A
C52          C55   1.385       .  A
C52         C645   1.450       .  A
C53          C59   1.369       .  A
C53         C646   1.439       .  A
C54          C62   1.399       .  A
C54         C647   1.461       .  A
C55          H68   1.077       .  S
C55         N652   1.360       .  A
N56          C57   1.360   1_556  A
N56        C1247   1.358       .  A
N56         N194   1.423       .  S
C57          H58   1.077       .  S
C59          H69   1.081       .  S
C59         N656   1.353       .  A
N60          C61   1.361   1_556  A
N60        C1251   1.352       .  A
N60         C497   1.424       .  S
C61          H67   1.081       .  S
C62          H64   1.079       .  S
C62          N63   1.369       .  A
N63         C661   1.358       .  A
N63         C486   1.459       .  S
C65          H66   1.081       .  S
C65        N1255   1.352   1_554  A
C70          C72   1.565       .  S
C70          C74   1.562       .  S
C70          C73   1.592       .  S
C71          C75   1.572       .  S
C71          C77   1.568       .  S
C71          C76   1.600       .  S
C72          C80   1.382       .  A
C72          C75   1.438       .  A
C73          C84   1.400       .  A
C73          C76   1.462       .  A
C74          C88   1.369       .  A
C74          C77   1.445       .  A
C75          C78   1.385       .  A
C76          C82   1.400       .  A
C77          C85   1.383       .  A
C78          H91   1.079       .  S
C78          N79   1.364       .  A
N79          C80   1.363       .  A
N79         N217   1.424       .  S
C80          H81   1.079       .  S
C82          H92   1.070       .  S
C82          N83   1.368       .  A
N83          C84   1.363       .  A
N83         C466   1.476       .  S
C84          H90   1.080       .  S
C85          H87   1.082       .  S
C85          N86   1.361       .  A
N86          C88   1.360       .  A
N86         C446   1.436       .  S
C88          H89   1.083       .  S
Zn93         O97   2.098   1_554  S
Zn93         O98   2.009   1_564  S
Zn93        O102   2.172   1_654  S
Zn93        O109   2.006       .  S
Zn94        O693   1.995       .  S
Zn94         O99   2.027       .  S
Zn94        O101   2.168   1_565  S
Zn94        O105   2.011       .  S
Zn95        O693   2.031       .  S
Zn95        O100   2.137   1_655  S
Zn95        O103   1.961       .  S
Zn95        O106   2.014       .  S
Zn96         O97   2.011   1_554  S
Zn96        O104   2.131       .  S
Zn96        O107   1.976       .  S
Zn96        O108   1.997       .  S
O97       Zn1286   1.989       .  S
O97       Zn1287   2.030       .  S
O98         C110   1.265       .  A
O99         C111   1.265       .  A
O100        C708   1.287       .  A
O101        C706   1.290       .  A
O102        C112   1.292       .  A
O103        C111   1.259       .  A
O104        C113   1.281       .  A
O105        C710   1.271       .  A
O106        C709   1.273       .  A
O107        C114   1.267   1_554  A
O108        C115   1.260       .  A
O109        C115   1.251       .  A
C110       O1293   1.291   1_545  A
C110        C557   1.525       .  S
C111        C137   1.447       .  S
C112       O1292   1.286       .  A
C112        C397   1.545       .  S
C113       O1298   1.268       .  A
C113        C417   1.510       .  S
C114       O1297   1.268       .  A
C114        C506   1.463       .  S
C115        C135   1.457       .  S
Zn116       O120   1.956       .  S
Zn116       O121   2.023   1_565  S
Zn116       O125   1.947       .  S
Zn116       O132   1.910   1_655  S
Zn117       O120   1.969       .  S
Zn117       O122   2.145       .  S
Zn117       O124   2.016   1_565  S
Zn117       O128   1.986       .  S
Zn118       O120   2.032       .  S
Zn118       O123   1.985       .  S
Zn118       O126   2.156       .  S
Zn118       O129   2.017       .  S
Zn119       O120   2.049       .  S
Zn119       O127   2.038   1_655  S
Zn119       O130   1.968       .  S
Zn119       O131   2.035   1_655  S
O121        C133   1.270       .  A
O122        C134   1.289       .  A
O123        C135   1.255       .  A
O124        C133   1.269       .  A
O125        C135   1.258       .  A
O126        C134   1.290       .  A
O127        C136   1.275   1_455  A
O128        C137   1.257       .  A
O129        C136   1.275       .  A
O130        C137   1.261       .  A
O131        C138   1.270       .  A
O132        C138   1.250       .  A
C133        C517   1.470       .  S
C134        C457   1.529       .  S
C136        C386   1.480       .  S
C138        C366   1.486       .  S
C139        C141   1.567       .  S
C139        C143   1.571   1_455  S
C139        C142   1.548       .  S
C139        C162   1.790       .  S
C140        C144   1.584       .  S
C140        C146   1.580   1_455  S
C140        C145   1.574       .  S
C140        C163   1.788       .  S
C141        C149   1.374   1_455  A
C141        C740   1.455       .  A
C142        C153   1.377       .  A
C142        C741   1.453       .  A
C143        C157   1.378       .  A
C143        C742   1.451       .  A
C144        C147   1.391   1_455  A
C144       C1333   1.450   1_554  A
C145        C151   1.374       .  A
C145       C1334   1.440   1_554  A
C146        C154   1.380       .  A
C146       C1335   1.459   1_554  A
C147        H160   1.077       .  S
C147        N148   1.365       .  A
N148       C1341   1.354   1_554  A
C149        H150   1.077       .  S
C149        N744   1.360       .  A
C151        H161   1.068       .  S
C151       N1344   1.356       .  A
N152        C153   1.331       .  A
N152        C747   1.341       .  A
N152        C337   1.428       .  S
C153        H159   1.077       .  S
C154        H156   1.080       .  S
C154        N155   1.359       .  A
N155       C1349   1.355   1_554  A
N155        C426   1.442       .  S
C157        H158   1.078       .  S
C157        N751   1.354       .  A
C162        C164   1.566   1_455  S
C162        C166   1.584       .  S
C162        C165   1.555       .  S
C163        C167   1.554   1_455  S
C163        C169   1.597       .  S
C163        C168   1.591       .  S
C164        C172   1.380       .  A
C164        C167   1.435       .  A
C165        C176   1.371       .  A
C165        C168   1.452       .  A
C166        C180   1.405       .  A
C166        C169   1.464       .  A
C167        C170   1.377       .  A
C168        C174   1.383       .  A
C169        C177   1.395       .  A
C170        H183   1.080       .  S
C170        N171   1.359       .  A
N171        C172   1.363       .  A
C172        H173   1.080       .  S
C174        H184   1.075       .  S
C174        N175   1.364       .  A
N175        C176   1.351       .  A
N175        C377   1.436       .  S
C176        H182   1.081       .  S
C177        H179   1.058       .  S
C177        N178   1.350       .  A
N178        C180   1.341       .  A
N178        C317   1.462       .  S
C180        H181   1.074       .  S
C185        C187   1.573       .  S
C185        C189   1.569       .  S
C185        C188   1.602   1_545  S
C185        C209   1.805       .  S
C186        C190   1.586       .  S
C186        C192   1.573       .  S
C186        C191   1.583       .  S
C186        C208   1.783       .  S
C187        C195   1.386   1_545  A
C187       C1382   1.443   1_544  A
C188        C199   1.398       .  A
C188       C1383   1.453   1_554  A
C189        C203   1.384       .  A
C189       C1384   1.454   1_554  A
C190        C193   1.389   1_545  A
C190        C783   1.443       .  A
C191        C197   1.398   1_545  A
C191        C784   1.447       .  A
C192        C200   1.369       .  A
C192        C785   1.449       .  A
C193        H206   1.079       .  S
C193        N790   1.366       .  A
N194        C195   1.363   1_556  A
N194       C1385   1.363       .  A
C195        H196   1.080       .  S
C197        H207   1.080       .  S
C197        N794   1.368       .  A
N198        C199   1.368   1_556  A
N198       C1389   1.364       .  A
N198        C406   1.472       .  S
C199        H205   1.075       .  S
C200        H202   1.069       .  S
C200        N201   1.343       .  A
N201        C799   1.352       .  A
N201        C306   1.448       .  S
C203        H204   1.073       .  S
C203       N1393   1.341   1_554  A
C208        C210   1.563   1_545  S
C208        C212   1.613       .  S
C208        C211   1.552       .  S
C209        C213   1.574   1_545  S
C209        C215   1.582       .  S
C209        C214   1.561       .  S
C210        C218   1.382       .  A
C210        C213   1.438       .  A
C211        C222   1.366       .  A
C211        C214   1.447       .  A
C212        C226   1.403       .  A
C212        C215   1.471       .  A
C213        C216   1.386       .  A
C214        C220   1.370       .  A
C215        C223   1.398       .  A
C216        H229   1.077       .  S
C216        N217   1.363       .  A
N217        C218   1.361       .  A
C218        H219   1.077       .  S
C220        H230   1.082       .  S
C220        N221   1.364       .  A
N221        C222   1.352       .  A
N221        C357   1.420       .  S
C222        H228   1.080       .  S
C223        H225   1.077       .  S
C223        N224   1.340       .  A
N224        C226   1.355       .  A
N224        C277   1.463       .  S
C226        H227   1.076       .  S
Zn231       O235   2.150       .  S
Zn231       O236   2.225       .  S
Zn231       O240   2.135       .  S
Zn231       O247   2.072       .  S
Zn232      O1427   2.066       .  S
Zn232       O237   2.067       .  S
Zn232       O239   2.068       .  S
Zn232       O243   2.229       .  S
Zn233       O235   2.012       .  S
Zn233       O238   2.067       .  S
Zn233       O241   2.000       .  S
Zn233       O244   2.017       .  S
Zn234      O1427   1.966       .  S
Zn234       O242   2.070       .  S
Zn234       O245   2.024       .  S
Zn234       O246   2.052       .  S
O235       Zn828   1.937       .  S
O235       Zn830   2.193       .  S
O236        C248   1.297       .  A
O237       C1441   1.286       .  A
O238        C250   1.393       .  A
O239       C1440   1.279       .  A
O240        C250   1.386       .  A
O241        C249   1.278       .  A
O242       C1443   1.287       .  A
O243        C252   1.388       .  A
O244        C251   1.274       .  A
O245        C252   1.395       .  A
O246       C1445   1.270       .  A
O247        C253   1.275       .  A
C248        O835   1.263       .  A
C248        C477   1.521       .  S
C249        O833   1.287       .  A
C249        C346   1.485       .  S
C250        C272   1.521       .  S
C251        O838   1.288       .  A
C251        C297   1.513       .  S
C252        C276   1.518       .  S
C253        O842   1.287       .  A
C253        C577   1.514       .  S
Zn254       O258   2.185       .  S
Zn254       O259   2.047       .  S
Zn254       O263   2.010       .  S
Zn254       O270   2.044       .  S
Zn255       O258   2.058       .  S
Zn255       O260   2.070       .  S
Zn255       O262   1.966       .  S
Zn255       O266   1.889       .  S
Zn256       O258   2.066       .  S
Zn256       O261   2.158       .  S
Zn256       O264   2.809       .  S
Zn256       O267   2.147       .  S
Zn257       O258   2.061       .  S
Zn257       O265   2.100       .  S
Zn257       O268   2.183       .  S
Zn257       O269   2.758       .  S
O259        C271   1.275       .  A
O260        C272   1.266       .  A
O261        C273   1.289       .  A
O262        C271   1.262       .  A
O263        C273   1.267       .  A
O264        C272   1.282       .  A
O265        C274   1.289       .  A
O266        C275   1.256       .  A
O267        C274   1.300       .  A
O268        C275   1.293       .  A
O269        C276   1.286       .  A
O270        C276   1.265       .  A
C271        C546   1.467       .  S
C273        C437   1.510       .  S
C274        C326   1.515       .  S
C275        C286   1.524       .  S
C277        C278   1.398       .  A
C277        C282   1.409       .  A
C278        C279   1.420       .  A
C278       Br290   1.923       .  S
C279        C280   1.435       .  A
C279       Br294   1.931       .  S
C280        C281   1.431       .  A
C280        C283   1.550       .  S
C281        C282   1.425       .  A
C281       Br289   1.928       .  S
C282       Br293   1.908       .  S
C283        C284   1.414       .  A
C283        C288   1.446       .  A
C284        C285   1.397       .  A
C284       Br295   1.915       .  S
C285        C286   1.415       .  A
C285       Br291   1.931       .  S
C286        C287   1.408       .  A
C287        C288   1.436       .  A
C287       Br296   1.915       .  S
C288       Br292   1.934       .  S
C297        C298   1.416       .  A
C297        C898   1.410       .  A
C298        C299   1.431       .  A
C298       Br310   1.936       .  S
C299        C300   1.442       .  A
C299       Br314   1.934       .  S
C300        C897   1.424       .  A
C300        C303   1.555       .  S
C301        C302   1.404       .  A
C301       C1492   1.418   1_554  A
C301       Br309   1.934       .  S
C302       C1489   1.405       .  A
C302       Br313   1.921   1_554  S
C303        C304   1.436       .  A
C303        C904   1.442       .  A
C304        C305   1.410       .  A
C304       Br315   1.943       .  S
C305        C306   1.397       .  A
C305       Br311   1.928       .  S
C306        C903   1.405       .  A
C307        C308   1.415       .  A
C307       C1498   1.403       .  A
C307       Br316   1.935       .  S
C308       C1495   1.435       .  A
C308       Br312   1.919   1_556  S
C317        C318   1.405       .  A
C317        C322   1.397       .  A
C318        C319   1.433       .  A
C318       Br330   1.928       .  S
C319        C320   1.445       .  A
C319       Br334   1.913       .  S
C320        C321   1.434       .  A
C320        C323   1.578       .  S
C321        C322   1.419       .  A
C321       Br329   1.900       .  S
C322       Br333   1.931       .  S
C323        C324   1.441       .  A
C323        C328   1.449       .  A
C324        C325   1.419       .  A
C324       Br335   1.924       .  S
C325        C326   1.398       .  A
C325       Br331   1.919       .  S
C326        C327   1.402       .  A
C327        C328   1.423       .  A
C327       Br336   1.911       .  S
C328       Br332   1.930       .  S
C337        C342   1.381       .  A
C337        C934   1.402       .  A
C338        C339   1.402       .  A
C338       C1529   1.406       .  A
C338       Br350   1.930       .  S
C339       C1532   1.419       .  A
C339       Br354   1.910       .  S
C340        C341   1.425       .  A
C340        C935   1.451       .  A
C340        C343   1.552       .  S
C341        C342   1.394       .  A
C341       Br349   1.895       .  S
C342       Br353   1.933       .  S
C343        C348   1.442       .  A
C343        C940   1.438       .  A
C344        C345   1.407       .  A
C344       C1535   1.427       .  A
C344       Br355   1.935       .  S
C345       C1538   1.411       .  A
C345       Br351   1.939       .  S
C346        C347   1.410       .  A
C346        C941   1.392       .  A
C347        C348   1.425       .  A
C347       Br356   1.934       .  S
C348       Br352   1.932       .  S
C357        C358   1.392       .  A
C357        C362   1.411       .  A
C358        C359   1.366       .  A
C358       Br370   1.934   1_545  S
C359        C360   1.404       .  A
C359       Br374   1.901   1_545  S
C360        C361   1.418       .  A
C360        C363   1.477       .  S
C361        C362   1.412       .  A
C361       Br369   1.933       .  S
C362       Br373   1.916       .  S
C363        C364   1.406       .  A
C363        C368   1.415   1_545  A
C364        C365   1.404       .  A
C364       Br375   1.943       .  S
C365        C366   1.430   1_545  A
C365       Br371   1.936       .  S
C366        C367   1.406       .  A
C367        C368   1.396       .  A
C367       Br376   1.932       .  S
C368       Br372   1.942       .  S
C377        C378   1.397   1_455  A
C377        C382   1.403       .  A
C378        C379   1.402       .  A
C378       Br390   1.932       .  S
C379        C380   1.426   1_655  A
C379       Br394   1.913       .  S
C380        C381   1.426       .  A
C380        C383   1.519       .  S
C381        C382   1.413       .  A
C381       Br389   1.937       .  S
C382       Br393   1.920       .  S
C383        C384   1.428       .  A
C383        C388   1.424   1_455  A
C384        C385   1.412       .  A
C384       Br395   1.937       .  S
C385        C386   1.409   1_455  A
C385       Br391   1.936       .  S
C386        C387   1.406       .  A
C387        C388   1.404       .  A
C387       Br396   1.943       .  S
C388       Br392   1.914       .  S
C397        C402   1.421   1_556  A
C397       C1590   1.431       .  A
C398        C399   1.411       .  A
C398        C993   1.401       .  A
C398       Br410   1.905       .  S
C399        C996   1.406       .  A
C399       Br414   1.916       .  S
C400        C401   1.426   1_556  A
C400       C1591   1.426       .  A
C400       C1595   1.557       .  S
C401        C402   1.423       .  A
C401       Br409   1.923   1_565  S
C402       Br413   1.934   1_565  S
C403        C404   1.428       .  A
C403       C1004   1.422       .  A
C403        C996   1.548       .  S
C404        C405   1.433       .  A
C404       Br415   1.927       .  S
C405       C1002   1.413       .  A
C405       Br411   1.925       .  S
C406        C407   1.410       .  A
C406       C1597   1.413   1_556  A
C407        C408   1.423       .  A
C407       Br416   1.924   1_565  S
C408       C1595   1.427       .  A
C408       Br412   1.922   1_565  S
C417        C418   1.415       .  A
C417       C1614   1.413       .  A
C418        C419   1.426       .  A
C418       Br430   1.930       .  S
C419       C1612   1.433       .  A
C419       Br434   1.940       .  S
C420        C421   1.423       .  A
C420       C1015   1.430       .  A
C420       C1019   1.530       .  S
C421        C422   1.405       .  A
C421       Br429   1.930   1_655  S
C422       C1013   1.413       .  A
C422       Br433   1.940   1_655  S
C423        C424   1.427       .  A
C423       C1620   1.433       .  A
C423       C1612   1.532       .  S
C424        C425   1.398       .  A
C424       Br435   1.911   1_655  S
C425        C426   1.394       .  A
C425       Br431   1.932   1_655  S
C426       C1619   1.403       .  A
C427        C428   1.419       .  A
C427       C1022   1.399       .  A
C427       Br436   1.927       .  S
C428       C1019   1.436       .  A
C428       Br432   1.931       .  S
C437        C438   1.416       .  A
C437        C442   1.415       .  A
C438        C439   1.422       .  A
C438       Br450   1.925       .  S
C439        C440   1.418       .  A
C439       Br454   1.932       .  S
C440        C441   1.421       .  A
C440        C443   1.519       .  S
C441        C442   1.413       .  A
C441       Br449   1.934       .  S
C442       Br453   1.927       .  S
C443        C444   1.411       .  A
C443        C448   1.427       .  A
C444        C445   1.393       .  A
C444       Br455   1.884       .  S
C445        C446   1.391       .  A
C445       Br451   1.933       .  S
C446        C447   1.406       .  A
C447        C448   1.423       .  A
C447       Br456   1.923       .  S
C448       Br452   1.929       .  S
C457        C458   1.419       .  A
C457        C462   1.403       .  A
C458        C459   1.436       .  A
C458       Br470   1.927       .  S
C459        C460   1.432       .  A
C459       Br474   1.929       .  S
C460        C461   1.435       .  A
C460        C463   1.576       .  S
C461        C462   1.427       .  A
C461       Br469   1.897       .  S
C462       Br473   1.936       .  S
C463        C464   1.441       .  A
C463        C468   1.436       .  A
C464        C465   1.437       .  A
C464       Br475   1.938       .  S
C465        C466   1.414       .  A
C465       Br471   1.925       .  S
C466        C467   1.406       .  A
C467        C468   1.429       .  A
C467       Br476   1.930       .  S
C468       Br472   1.914       .  S
C477        C482   1.403       .  A
C477       C1074   1.427       .  A
C478        C479   1.409       .  A
C478       C1669   1.411       .  A
C478       Br490   1.932       .  S
C479       C1672   1.419       .  A
C479       Br494   1.936       .  S
C480        C481   1.411       .  A
C480       C1075   1.405       .  A
C480        C483   1.516       .  S
C481        C482   1.416       .  A
C481       Br489   1.927       .  S
C482       Br493   1.888       .  S
C483        C488   1.417       .  A
C483       C1080   1.417       .  A
C484        C485   1.419       .  A
C484       C1675   1.421   1_554  A
C484       Br495   1.927       .  S
C485       C1678   1.408   1_554  A
C485       Br491   1.923       .  S
C486        C487   1.408       .  A
C486       C1081   1.416       .  A
C487        C488   1.415       .  A
C487       Br496   1.925       .  S
C488       Br492   1.927       .  S
C497        C502   1.391       .  A
C497       C1690   1.398       .  A
C498        C499   1.410       .  A
C498       C1093   1.394       .  A
C498       Br510   1.928       .  S
C499       C1096   1.437       .  A
C499       Br514   1.933       .  S
C500        C501   1.421   1_556  A
C500       C1691   1.433       .  A
C500        C503   1.497       .  S
C501        C502   1.380   1_554  A
C501       Br509   1.929       .  S
C502       Br513   1.935       .  S
C503        C504   1.420   1_556  A
C503       C1700   1.423       .  A
C504        C505   1.406       .  A
C504       Br515   1.937       .  S
C505        C506   1.410   1_554  A
C505       Br511   1.930       .  S
C506       C1699   1.398       .  A
C507        C508   1.403       .  A
C507       C1102   1.403       .  A
C507       Br516   1.940       .  S
C508       C1099   1.426       .  A
C508       Br512   1.924       .  S
C517        C518   1.398       .  A
C517        C522   1.402       .  A
C518        C519   1.410       .  A
C518       Br530   1.930       .  S
C519        C520   1.429       .  A
C519       Br534   1.932       .  S
C520        C521   1.427       .  A
C520        C523   1.513       .  S
C521        C522   1.406       .  A
C521       Br529   1.939       .  S
C522       Br533   1.935       .  S
C523        C524   1.426       .  A
C523        C528   1.421       .  A
C524        C525   1.414       .  A
C524       Br535   1.930       .  S
C525        C526   1.403       .  A
C525       Br531   1.926       .  S
C526        C527   1.397       .  A
C527        C528   1.393       .  A
C527       Br536   1.928       .  S
C528       Br532   1.911       .  S
C537        C538   1.405       .  A
C537        C542   1.406       .  A
C538        C539   1.391       .  A
C538       Br550   1.915       .  S
C539        C540   1.398       .  A
C539       Br554   1.922       .  S
C540        C541   1.416       .  A
C540        C543   1.483       .  S
C541        C542   1.410       .  A
C541       Br549   1.926       .  S
C542       Br553   1.917       .  S
C543        C544   1.405       .  A
C543        C548   1.422       .  A
C544        C545   1.408       .  A
C544       Br555   1.930       .  S
C545        C546   1.418       .  A
C545       Br551   1.929       .  S
C546        C547   1.399       .  A
C547        C548   1.397       .  A
C547       Br556   1.935       .  S
C548       Br552   1.933       .  S
C557        C558   1.430       .  A
C557       C1754   1.418       .  A
C558        C559   1.412       .  A
C558       Br570   1.955   1_556  S
C559       C1752   1.424       .  A
C559       Br574   1.938   1_556  S
C560        C561   1.434       .  A
C560       C1155   1.420       .  A
C560       C1159   1.544       .  S
C561        C562   1.429       .  A
C561       Br569   1.933       .  S
C562       C1153   1.420       .  A
C562       Br573   1.938       .  S
C563        C564   1.429   1_556  A
C563       C1760   1.426       .  A
C563       C1752   1.544       .  S
C564        C565   1.428       .  A
C564       Br575   1.933       .  S
C565        C566   1.412       .  A
C565       Br571   1.915       .  S
C566       C1759   1.396   1_554  A
C567        C568   1.408       .  A
C567       C1162   1.399       .  A
C567       Br576   1.931       .  S
C568       C1159   1.428       .  A
C568       Br572   1.912       .  S
C577        C578   1.418       .  A
C577       C1178   1.408       .  A
C578        C579   1.423       .  A
C578       Br590   1.910       .  S
C579        C580   1.414       .  A
C579       Br594   1.926       .  S
C580       C1177   1.403       .  A
C580        C583   1.514       .  S
C581        C582   1.409       .  A
C581       C1772   1.421       .  A
C581       Br589   1.928       .  S
C582       C1769   1.415       .  A
C582       Br593   1.924       .  S
C583        C584   1.415       .  A
C583       C1184   1.420       .  A
C584        C585   1.406       .  A
C584       Br595   1.930       .  S
C585        C586   1.404       .  A
C585       Br591   1.918       .  S
C586       C1183   1.411       .  A
C587        C588   1.417       .  A
C587       C1778   1.405       .  A
C587       Br596   1.923       .  S
C588       C1775   1.427       .  A
C588       Br592   1.934       .  S
C597        C599   1.575       .  S
C597        C601   1.571       .  S
C597        C600   1.584       .  S
C597        C620   1.771       .  S
C598        C602   1.579       .  S
C598        C604   1.578       .  S
C598        C603   1.577       .  S
C598        C621   1.798       .  S
C599        C607   1.383       .  A
C600        C611   1.398       .  A
C601        C615   1.383       .  A
C602       C1195   1.447       .  A
C602        C605   1.383       .  A
C603       C1196   1.448       .  A
C603        C609   1.377       .  A
C604       C1197   1.461       .  A
C604        C612   1.380       .  A
C605        H618   1.079       .  S
C605       N1202   1.367       .  A
N606        C607   1.365       .  A
N606        N744   1.421       .  S
C607        H608   1.079       .  S
C609        H619   1.075       .  S
C609       N1206   1.363       .  A
N610        C611   1.366       .  A
N610       C1162   1.459       .  S
C611        H617   1.080       .  S
C612        H614   1.079       .  S
C612        N613   1.361       .  A
N613       C1211   1.350       .  A
N613       C1182   1.437       .  S
C615        H616   1.082       .  S
C620        C622   1.573       .  S
C620        C624   1.556       .  S
C620        C623   1.567       .  S
C621        C625   1.583       .  S
C621        C627   1.565       .  S
C621        C626   1.586       .  S
C622        C630   1.382       .  A
C622        C625   1.461       .  A
C623        C634   1.387       .  A
C623        C626   1.442       .  A
C624        C638   1.369       .  A
C624        C627   1.452       .  A
C625        C628   1.387       .  A
C626        C632   1.383       .  A
C627        C635   1.374       .  A
C628        H641   1.079       .  S
C628        N629   1.363       .  A
N629        C630   1.359       .  A
N629        N767   1.424       .  S
C630        H631   1.078       .  S
C632        H642   1.080       .  S
C632        N633   1.374       .  A
N633        C634   1.364       .  A
N633       C1133   1.468       .  S
C634        H640   1.078       .  S
C635        H637   1.076       .  S
C635        N636   1.357       .  A
N636        C638   1.349       .  A
N636       C1122   1.429       .  S
C638        H639   1.080       .  S
C643        C645   1.580       .  S
C643        C647   1.575       .  S
C643        C646   1.554       .  S
C643        C667   1.779       .  S
C644        C648   1.568       .  S
C644        C650   1.594       .  S
C644        C649   1.559       .  S
C644        C666   1.775       .  S
C645        C653   1.390       .  A
C646        C657   1.362       .  A
C647        C661   1.384       .  A
C648       C1241   1.445       .  A
C648        C651   1.385       .  A
C649       C1242   1.439       .  A
C649        C655   1.375       .  A
C650       C1243   1.462       .  A
C650        C658   1.396       .  A
C651        H664   1.078       .  S
C651       N1248   1.359       .  A
N652        C653   1.365       .  A
N652        N790   1.428       .  S
C653        H654   1.078       .  S
C655        H665   1.081       .  S
C655       N1252   1.356       .  A
N656        C657   1.355       .  A
N656       C1093   1.422       .  S
C657        H663   1.076       .  S
C658        H660   1.082       .  S
C658        N659   1.367       .  A
N659       C1257   1.358       .  A
N659       C1082   1.462       .  S
C661        H662   1.082       .  S
C666        C668   1.574       .  S
C666        C670   1.551       .  S
C666        C669   1.594       .  S
C667        C671   1.560       .  S
C667        C673   1.564       .  S
C667        C672   1.602       .  S
C668        C676   1.385       .  A
C668        C671   1.437       .  A
C669        C680   1.403       .  A
C669        C672   1.461       .  A
C670        C684   1.365       .  A
C670        C673   1.445       .  A
C671        C674   1.380       .  A
C672        C678   1.401       .  A
C673        C681   1.377       .  A
C674        H687   1.079       .  S
C674        N675   1.358       .  A
N675        C676   1.366       .  A
N675        N813   1.423       .  S
C676        H677   1.078       .  S
C678        H688   1.074       .  S
C678        N679   1.368       .  A
N679        C680   1.366       .  A
N679       C1062   1.480       .  S
C680        H686   1.079       .  S
C681        H683   1.079       .  S
C681        N682   1.359       .  A
N682        C684   1.351       .  A
N682       C1042   1.429       .  S
C684        H685   1.075       .  S
Zn689       O693   2.108       .  S
Zn689       O694   1.986   1_565  S
Zn689       O698   2.219   1_655  S
Zn689       O705   2.019       .  S
Zn690      O1289   1.991       .  S
Zn690       O695   2.009       .  S
Zn690       O697   2.135   1_565  S
Zn690       O701   1.996       .  S
Zn691      O1289   2.030       .  S
Zn691       O696   2.103   1_655  S
Zn691       O699   1.945       .  S
Zn691       O702   2.000       .  S
Zn692       O693   2.033       .  S
Zn692       O700   2.133       .  S
Zn692       O703   1.974       .  S
Zn692       O704   1.994       .  S
O694        C706   1.266       .  A
O695        C707   1.258       .  A
O696       C1304   1.283       .  A
O697       C1302   1.286       .  A
O698        C708   1.296       .  A
O699        C707   1.253       .  A
O700        C709   1.282       .  A
O701       C1306   1.269       .  A
O702       C1305   1.270       .  A
O703        C710   1.265       .  A
O704        C711   1.258       .  A
O705        C711   1.253       .  A
C706       C1153   1.526       .  S
C707        C733   1.446       .  S
C708        C993   1.529       .  S
C709       C1013   1.514       .  S
C710       C1102   1.480       .  S
C711        C731   1.453       .  S
Zn712       O716   1.966       .  S
Zn712       O717   2.044   1_565  S
Zn712       O721   1.926       .  S
Zn712       O728   1.913   1_655  S
Zn713       O716   2.009       .  S
Zn713       O718   2.129       .  S
Zn713       O720   1.978   1_565  S
Zn713       O724   1.943       .  S
Zn714       O716   2.066       .  S
Zn714       O719   1.961       .  S
Zn714       O722   2.195       .  S
Zn714       O725   2.020       .  S
Zn715       O716   2.041   1_455  S
Zn715       O723   2.101       .  S
Zn715       O726   1.939   1_455  S
Zn715       O727   2.103       .  S
O717        C729   1.273       .  A
O718        C730   1.284       .  A
O719        C731   1.249       .  A
O720        C729   1.265       .  A
O721        C731   1.249       .  A
O722        C730   1.293       .  A
O723        C732   1.286   1_455  A
O724        C733   1.252       .  A
O725        C732   1.277       .  A
O726        C733   1.256       .  A
O727        C734   1.278       .  A
O728        C734   1.250       .  A
C729       C1113   1.464       .  S
C730       C1053   1.533       .  S
C732        C982   1.492       .  S
C734        C962   1.509   1_565  S
C735        C737   1.564       .  S
C735        C739   1.571   1_455  S
C735        C738   1.549       .  S
C735        C758   1.783       .  S
C736        C740   1.587       .  S
C736        C742   1.565   1_455  S
C736        C741   1.579       .  S
C736        C759   1.786       .  S
C737        C745   1.375   1_455  A
C737       C1336   1.450       .  A
C738        C749   1.372       .  A
C738       C1337   1.456       .  A
C739        C753   1.384       .  A
C739       C1338   1.445       .  A
C740        C743   1.384   1_455  A
C741        C747   1.373       .  A
C742        C750   1.374       .  A
C743        H756   1.077       .  S
C743        N744   1.362       .  A
C745        H746   1.078       .  S
C745       N1340   1.359       .  A
C747        H757   1.066       .  S
N748       C1343   1.348       .  A
N748        C749   1.330       .  A
N748        C933   1.433       .  S
C749        H755   1.076       .  S
C750        H752   1.078       .  S
C750        N751   1.359       .  A
N751       C1022   1.439       .  S
C753        H754   1.079       .  S
C753       N1347   1.357       .  A
C758        C760   1.569   1_455  S
C758        C762   1.587       .  S
C758        C761   1.553       .  S
C759        C763   1.564   1_455  S
C759        C765   1.600       .  S
C759        C764   1.597       .  S
C760        C768   1.384       .  A
C760        C763   1.436       .  A
C761        C772   1.375       .  A
C761        C764   1.449       .  A
C762        C776   1.410       .  A
C762        C765   1.454       .  A
C763        C766   1.384       .  A
C764        C770   1.385       .  A
C765        C773   1.397       .  A
C766        H779   1.080       .  S
C766        N767   1.364       .  A
N767        C768   1.361       .  A
C768        H769   1.079       .  S
C770        H780   1.072       .  S
C770        N771   1.365       .  A
N771        C772   1.351       .  A
N771        C973   1.446       .  S
C772        H778   1.080       .  S
C773        H775   1.072       .  S
C773        N774   1.352       .  A
N774        C776   1.347       .  A
N774        C913   1.469       .  S
C776        H777   1.075       .  S
C781        C783   1.570       .  S
C781        C785   1.580       .  S
C781        C784   1.596       .  S
C781        C805   1.794       .  S
C782        C786   1.590       .  S
C782        C788   1.555       .  S
C782        C787   1.581   1_545  S
C782        C804   1.773       .  S
C783        C791   1.386   1_545  A
C784        C795   1.399   1_545  A
C785        C799   1.399       .  A
C786       C1379   1.439       .  A
C786        C789   1.396   1_545  A
C787       C1380   1.463       .  A
C787        C793   1.394       .  A
C788       C1381   1.437       .  A
C788        C796   1.365       .  A
C789        H802   1.078       .  S
C789       N1386   1.370       .  A
N790        C791   1.362       .  A
C791        H792   1.078       .  S
C793        H803   1.080       .  S
C793       N1390   1.357       .  A
N794        C795   1.366       .  A
N794       C1002   1.473       .  S
C795        H801   1.080       .  S
C796        H798   1.073       .  S
C796        N797   1.351       .  A
N797       C1395   1.352       .  A
N797        C902   1.429       .  S
C799        H800   1.076       .  S
C804        C806   1.548   1_545  S
C804        C808   1.607       .  S
C804        C807   1.575       .  S
C805        C809   1.578   1_545  S
C805        C811   1.589       .  S
C805        C810   1.566       .  S
C806        C814   1.377       .  A
C806        C809   1.431       .  A
C807        C818   1.378       .  A
C807        C810   1.446       .  A
C808        C822   1.412       .  A
C808        C811   1.462       .  A
C809        C812   1.391       .  A
C810        C816   1.376       .  A
C811        C819   1.401       .  A
C812        H825   1.077       .  S
C812        N813   1.366       .  A
N813        C814   1.355       .  A
C814        H815   1.079       .  S
C816        H826   1.072       .  S
C816        N817   1.365       .  A
N817        C818   1.365       .  A
N817        C953   1.465       .  S
C818        H824   1.075       .  S
C819        H821   1.072       .  S
C819        N820   1.349       .  A
N820        C822   1.363       .  A
N820        C873   1.475       .  S
C822        H823   1.078       .  S
Zn827       O831   2.040       .  S
Zn827       O832   2.096       .  S
Zn827       O836   1.959       .  S
Zn827       O843   2.094       .  S
Zn828       O833   2.074       .  S
Zn828       O835   1.969       .  S
Zn828       O839   2.145       .  S
Zn829       O831   2.016       .  S
Zn829       O834   2.206       .  S
Zn829       O837   2.024       .  S
Zn829       O840   2.093       .  S
Zn830       O838   2.129       .  S
Zn830       O841   2.045       .  S
Zn830       O842   2.147       .  S
O831      Zn1424   2.423       .  S
O831      Zn1426   2.219       .  S
O832        C844   1.280       .  A
O834        C846   1.375       .  A
O836        C846   1.383       .  A
O837        C845   1.272       .  A
O839        C848   1.380       .  A
O840        C847   1.291       .  A
O841        C848   1.388       .  A
O843        C849   1.289       .  A
C844       O1431   1.269       .  A
C844       C1073   1.518       .  S
C845       O1429   1.269       .  A
C845        C942   1.484       .  S
C846        C868   1.505       .  S
C847       O1434   1.284       .  A
C847        C893   1.470       .  S
C848        C872   1.497       .  S
C849       O1438   1.278       .  A
C849       C1173   1.498       .  S
Zn850       O854   2.062       .  S
Zn850       O855   1.963       .  S
Zn850       O859   1.984       .  S
Zn850       O866   2.074       .  S
Zn851       O854   2.060       .  S
Zn851       O856   2.745       .  S
Zn851       O858   2.190       .  S
Zn851       O862   2.073       .  S
Zn852       O854   2.219       .  S
Zn852       O857   2.091       .  S
Zn852       O860   2.093       .  S
Zn852       O863   2.018       .  S
Zn853       O854   2.066       .  S
Zn853       O861   2.149       .  S
Zn853       O864   2.132       .  S
Zn853       O865   2.781       .  S
O855        C867   1.265       .  A
O856        C868   1.292       .  A
O857        C869   1.279       .  A
O858        C867   1.298       .  A
O859        C869   1.271       .  A
O860        C868   1.274       .  A
O861        C870   1.286       .  A
O862        C871   1.284       .  A
O863        C870   1.266       .  A
O864        C871   1.296       .  A
O865        C872   1.294       .  A
O866        C872   1.271       .  A
C867       C1142   1.534       .  S
C869       C1033   1.493       .  S
C870        C922   1.550       .  S
C871        C882   1.505       .  S
C873        C874   1.409       .  A
C873        C878   1.412       .  A
C874        C875   1.427       .  A
C874       Br886   1.931       .  S
C875        C876   1.431       .  A
C875       Br890   1.896       .  S
C876        C877   1.428       .  A
C876        C879   1.572       .  S
C877        C878   1.432       .  A
C877       Br885   1.900       .  S
C878       Br889   1.919       .  S
C879        C880   1.446       .  A
C879        C884   1.446       .  A
C880        C881   1.421       .  A
C880       Br891   1.933       .  S
C881        C882   1.402       .  A
C881       Br887   1.928       .  S
C882        C883   1.403       .  A
C883        C884   1.418       .  A
C883       Br892   1.922       .  S
C884       Br888   1.951       .  S
C893        C894   1.413       .  A
C893       C1494   1.410       .  A
C894        C895   1.413       .  A
C894       Br906   1.909       .  S
C895        C896   1.421       .  A
C895       Br910   1.920       .  S
C896       C1493   1.393       .  A
C896        C899   1.498       .  S
C897        C898   1.410       .  A
C897       Br905   1.937       .  S
C898       Br909   1.928       .  S
C899        C900   1.433       .  A
C899       C1500   1.419       .  A
C900        C901   1.407       .  A
C900       Br911   1.946       .  S
C901        C902   1.394       .  A
C901       Br907   1.926       .  S
C902       C1499   1.405       .  A
C903        C904   1.423       .  A
C903       Br912   1.933       .  S
C904       Br908   1.930       .  S
C913        C914   1.409       .  A
C913        C918   1.403       .  A
C914        C915   1.432       .  A
C914       Br926   1.934       .  S
C915        C916   1.449       .  A
C915       Br930   1.931       .  S
C916        C917   1.429       .  A
C916        C919   1.577       .  S
C917        C918   1.425       .  A
C917       Br925   1.912       .  S
C918       Br929   1.927       .  S
C919        C920   1.438       .  A
C919        C924   1.430       .  A
C920        C921   1.426       .  A
C920       Br931   1.910       .  S
C921        C922   1.416       .  A
C921       Br927   1.941       .  S
C922        C923   1.434       .  A
C923        C924   1.438       .  A
C923       Br932   1.937       .  S
C924       Br928   1.933       .  S
C933       C1530   1.401       .  A
C933        C938   1.398       .  A
C934        C935   1.418       .  A
C934       Br946   1.936       .  S
C935       Br950   1.928       .  S
C936       C1531   1.435       .  A
C936        C937   1.429       .  A
C936        C939   1.526       .  S
C937        C938   1.403       .  A
C937       Br945   1.932       .  S
C938       Br949   1.934       .  S
C939       C1536   1.425       .  A
C939        C944   1.432       .  A
C940        C941   1.397       .  A
C940       Br951   1.912       .  S
C941       Br947   1.951       .  S
C942       C1537   1.407       .  A
C942        C943   1.415       .  A
C943        C944   1.419       .  A
C943       Br952   1.935       .  S
C944       Br948   1.937       .  S
C953        C954   1.416       .  A
C953        C958   1.418       .  A
C954        C955   1.408       .  A
C954       Br966   1.925       .  S
C955        C956   1.403       .  A
C955       Br970   1.915       .  S
C956        C957   1.409       .  A
C956        C959   1.497       .  S
C957        C958   1.412       .  A
C957       Br965   1.921       .  S
C958       Br969   1.926       .  S
C959        C960   1.404       .  A
C959        C964   1.414       .  A
C960        C961   1.412       .  A
C960       Br971   1.934       .  S
C961        C962   1.433       .  A
C961       Br967   1.936       .  S
C962        C963   1.413   1_545  A
C963        C964   1.418   1_565  A
C963       Br972   1.925       .  S
C964       Br968   1.932   1_545  S
C973        C974   1.401   1_455  A
C973        C978   1.410       .  A
C974        C975   1.405       .  A
C974       Br986   1.931       .  S
C975        C976   1.421   1_655  A
C975       Br990   1.913       .  S
C976        C977   1.425       .  A
C976        C979   1.520       .  S
C977        C978   1.419       .  A
C977       Br985   1.936       .  S
C978       Br989   1.926       .  S
C979        C980   1.425       .  A
C979        C984   1.423   1_455  A
C980        C981   1.416       .  A
C980       Br991   1.933       .  S
C981        C982   1.409   1_455  A
C981       Br987   1.927       .  S
C982        C983   1.412       .  A
C983        C984   1.408       .  A
C983       Br992   1.937       .  S
C984       Br988   1.930       .  S
C993        C998   1.427       .  A
C994       C1589   1.410       .  A
C994        C995   1.416       .  A
C994      Br1006   1.943   1_565  S
C995       C1592   1.426       .  A
C995      Br1010   1.900   1_565  S
C996        C997   1.423       .  A
C997        C998   1.444       .  A
C997      Br1005   1.915       .  S
C998      Br1009   1.912       .  S
C999       C1000   1.431       .  A
C999       C1600   1.428       .  A
C999       C1592   1.551       .  S
C1000      C1001   1.430       .  A
C1000     Br1011   1.926       .  S
C1001      C1598   1.409       .  A
C1001     Br1007   1.925       .  S
C1002      C1003   1.412       .  A
C1003      C1004   1.427       .  A
C1003     Br1012   1.919   1_565  S
C1004     Br1008   1.925   1_565  S
C1013      C1014   1.416       .  A
C1014      C1015   1.425       .  A
C1014     Br1026   1.930       .  S
C1015     Br1030   1.940       .  S
C1016      C1611   1.428       .  A
C1016      C1017   1.423       .  A
C1016      C1615   1.533       .  S
C1017      C1018   1.410       .  A
C1017     Br1025   1.932   1_655  S
C1018      C1609   1.418       .  A
C1018     Br1029   1.943   1_655  S
C1019      C1020   1.430       .  A
C1020      C1021   1.398       .  A
C1020     Br1031   1.924   1_655  S
C1021      C1022   1.396       .  A
C1021     Br1027   1.934   1_655  S
C1023      C1618   1.406       .  A
C1023      C1024   1.424       .  A
C1023     Br1032   1.923       .  S
C1024      C1615   1.431       .  A
C1024     Br1028   1.930       .  S
C1033      C1034   1.414       .  A
C1033      C1038   1.420       .  A
C1034      C1035   1.412       .  A
C1034     Br1046   1.911       .  S
C1035      C1036   1.408       .  A
C1035     Br1050   1.931       .  S
C1036      C1037   1.392       .  A
C1036      C1039   1.485       .  S
C1037      C1038   1.401       .  A
C1037     Br1045   1.928       .  S
C1038     Br1049   1.908       .  S
C1039      C1040   1.420       .  A
C1039      C1044   1.407       .  A
C1040      C1041   1.396       .  A
C1040     Br1051   1.928       .  S
C1041      C1042   1.398       .  A
C1041     Br1047   1.933       .  S
C1042      C1043   1.408       .  A
C1043      C1044   1.408       .  A
C1043     Br1052   1.915       .  S
C1044     Br1048   1.928       .  S
C1053      C1054   1.419       .  A
C1053      C1058   1.410       .  A
C1054      C1055   1.432       .  A
C1054     Br1066   1.930       .  S
C1055      C1056   1.428       .  A
C1055     Br1070   1.926       .  S
C1056      C1057   1.435       .  A
C1056      C1059   1.569       .  S
C1057      C1058   1.431       .  A
C1057     Br1065   1.913       .  S
C1058     Br1069   1.932       .  S
C1059      C1060   1.436       .  A
C1059      C1064   1.423       .  A
C1060      C1061   1.439       .  A
C1060     Br1071   1.933       .  S
C1061      C1062   1.416       .  A
C1061     Br1067   1.924       .  S
C1062      C1063   1.411       .  A
C1063      C1064   1.427       .  A
C1063     Br1072   1.919       .  S
C1064     Br1068   1.907       .  S
C1073      C1670   1.410       .  A
C1073      C1078   1.427       .  A
C1074      C1075   1.421       .  A
C1074     Br1086   1.920       .  S
C1075     Br1090   1.927       .  S
C1076      C1671   1.419       .  A
C1076      C1077   1.410       .  A
C1076      C1079   1.524       .  S
C1077      C1078   1.423       .  A
C1077     Br1085   1.930       .  S
C1078     Br1089   1.922       .  S
C1079      C1676   1.421       .  A
C1079      C1084   1.403       .  A
C1080      C1081   1.427       .  A
C1080     Br1091   1.926       .  S
C1081     Br1087   1.923       .  S
C1082      C1677   1.419       .  A
C1082      C1083   1.409       .  A
C1083      C1084   1.406       .  A
C1083     Br1092   1.917       .  S
C1084     Br1088   1.904       .  S
C1093      C1098   1.395       .  A
C1094      C1689   1.395       .  A
C1094      C1095   1.412       .  A
C1094     Br1106   1.925       .  S
C1095      C1692   1.434       .  A
C1095     Br1110   1.928       .  S
C1096      C1097   1.423       .  A
C1096      C1099   1.508       .  S
C1097      C1098   1.386       .  A
C1097     Br1105   1.928       .  S
C1098     Br1109   1.934       .  S
C1099      C1100   1.420       .  A
C1100      C1101   1.410       .  A
C1100     Br1111   1.940       .  S
C1101      C1102   1.415       .  A
C1101     Br1107   1.933       .  S
C1103      C1698   1.400       .  A
C1103      C1104   1.402       .  A
C1103     Br1112   1.935       .  S
C1104      C1695   1.425       .  A
C1104     Br1108   1.923       .  S
C1113      C1114   1.396       .  A
C1113      C1118   1.402       .  A
C1114      C1115   1.407       .  A
C1114     Br1126   1.932       .  S
C1115      C1116   1.426       .  A
C1115     Br1130   1.923       .  S
C1116      C1117   1.425       .  A
C1116      C1119   1.506       .  S
C1117      C1118   1.404       .  A
C1117     Br1125   1.939       .  S
C1118     Br1129   1.932       .  S
C1119      C1120   1.425       .  A
C1119      C1124   1.423       .  A
C1120      C1121   1.408       .  A
C1120     Br1131   1.931       .  S
C1121      C1122   1.399       .  A
C1121     Br1127   1.925       .  S
C1122      C1123   1.399       .  A
C1123      C1124   1.395       .  A
C1123     Br1132   1.931       .  S
C1124     Br1128   1.920       .  S
C1133      C1134   1.401       .  A
C1133      C1138   1.435       .  A
C1134      C1135   1.400       .  A
C1134     Br1146   1.913       .  S
C1135      C1136   1.389       .  A
C1135     Br1150   1.935       .  S
C1136      C1137   1.419       .  A
C1136      C1139   1.520       .  S
C1137      C1138   1.442       .  A
C1137     Br1145   1.918       .  S
C1138     Br1149   1.906       .  S
C1139      C1140   1.416       .  A
C1139      C1144   1.409       .  A
C1140      C1141   1.429       .  A
C1140     Br1151   1.926       .  S
C1141      C1142   1.417       .  A
C1141     Br1147   1.907       .  S
C1142      C1143   1.425       .  A
C1143      C1144   1.418       .  A
C1143     Br1152   1.932       .  S
C1144     Br1148   1.921       .  S
C1153      C1154   1.430       .  A
C1154      C1155   1.412       .  A
C1154     Br1166   1.954       .  S
C1155     Br1170   1.930       .  S
C1156      C1751   1.423       .  A
C1156      C1157   1.424       .  A
C1156      C1755   1.527       .  S
C1157      C1158   1.420       .  A
C1157     Br1165   1.933       .  S
C1158      C1749   1.418       .  A
C1158     Br1169   1.937       .  S
C1159      C1160   1.429       .  A
C1160      C1161   1.429       .  A
C1160     Br1171   1.936       .  S
C1161      C1162   1.412       .  A
C1161     Br1167   1.911       .  S
C1163      C1758   1.393       .  A
C1163      C1164   1.395       .  A
C1163     Br1172   1.933       .  S
C1164      C1755   1.422       .  A
C1164     Br1168   1.908       .  S
C1173      C1174   1.418       .  A
C1173      C1774   1.413       .  A
C1174      C1175   1.416       .  A
C1174     Br1186   1.929       .  S
C1175      C1176   1.422       .  A
C1175     Br1190   1.935       .  S
C1176      C1773   1.424       .  A
C1176      C1179   1.525       .  S
C1177      C1178   1.412       .  A
C1177     Br1185   1.917       .  S
C1178     Br1189   1.900       .  S
C1179      C1180   1.426       .  A
C1179      C1780   1.435       .  A
C1180      C1181   1.402       .  A
C1180     Br1191   1.910       .  S
C1181      C1182   1.397       .  A
C1181     Br1187   1.936       .  S
C1182      C1779   1.400       .  A
C1183      C1184   1.425       .  A
C1183     Br1192   1.923       .  S
C1184     Br1188   1.925       .  S
C1193      C1195   1.554       .  S
C1193      C1197   1.560       .  S
C1193      C1196   1.563       .  S
C1193      C1216   1.767       .  S
C1194      C1198   1.574       .  S
C1194      C1200   1.580       .  S
C1194      C1199   1.570       .  S
C1194      C1217   1.791       .  S
C1195      C1203   1.370       .  A
C1196      C1207   1.379       .  A
C1197      C1211   1.375       .  A
C1198      C1201   1.380       .  A
C1199      C1205   1.377       .  A
C1200      C1208   1.379       .  A
C1201      H1214   1.079       .  S
N1202      C1203   1.357       .  A
N1202      N1340   1.419       .  S
C1203      H1204   1.080       .  S
C1205      H1215   1.076       .  S
N1206      C1207   1.356       .  A
N1206      C1758   1.440       .  S
C1207      H1213   1.080       .  S
C1208      H1210   1.075       .  S
C1208      N1209   1.362   1_556  A
N1209      C1778   1.436       .  S
C1211      H1212   1.081       .  S
C1216      C1218   1.561       .  S
C1216      C1220   1.558       .  S
C1216      C1219   1.552       .  S
C1217      C1221   1.569       .  S
C1217      C1223   1.584       .  S
C1217      C1222   1.560       .  S
C1218      C1226   1.376       .  A
C1218      C1221   1.453       .  A
C1219      C1230   1.367       .  A
C1219      C1222   1.443       .  A
C1220      C1234   1.372       .  A
C1220      C1223   1.466       .  A
C1221      C1224   1.375       .  A
C1222      C1228   1.368       .  A
C1223      C1231   1.384       .  A
C1224      H1237   1.078       .  S
C1224      N1225   1.360       .  A
N1225      C1226   1.358       .  A
N1225      N1363   1.417       .  S
C1226      H1227   1.080       .  S
C1228      H1238   1.073       .  S
C1228      N1229   1.357       .  A
N1229      C1230   1.351       .  A
N1229      C1729   1.426       .  S
C1230      H1236   1.078       .  S
C1231      H1233   1.079       .  S
C1231      N1232   1.360       .  A
N1232      C1234   1.347       .  A
N1232      C1718   1.436       .  S
C1234      H1235   1.082       .  S
C1239      C1241   1.575       .  S
C1239      C1243   1.578       .  S
C1239      C1242   1.551       .  S
C1239      C1263   1.772       .  S
C1240      C1244   1.570       .  S
C1240      C1246   1.584       .  S
C1240      C1245   1.543       .  S
C1240      C1262   1.779       .  S
C1241      C1249   1.386       .  A
C1242      C1253   1.364       .  A
C1243      C1257   1.387       .  A
C1244      C1247   1.381       .  A
C1245      C1251   1.367       .  A
C1246      C1254   1.384       .  A
C1247      H1260   1.077       .  S
N1248      C1249   1.366       .  A
N1248      N1386   1.426       .  S
C1249      H1250   1.078       .  S
C1251      H1261   1.081       .  S
N1252      C1253   1.354       .  A
N1252      C1689   1.426       .  S
C1253      H1259   1.077       .  S
C1254      H1256   1.077       .  S
C1254      N1255   1.359       .  A
N1255      C1678   1.442       .  S
C1257      H1258   1.080       .  S
C1262      C1264   1.563       .  S
C1262      C1266   1.574       .  S
C1262      C1265   1.581       .  S
C1263      C1267   1.560       .  S
C1263      C1269   1.566       .  S
C1263      C1268   1.593       .  S
C1264      C1272   1.378       .  A
C1264      C1267   1.437       .  A
C1265      C1276   1.396       .  A
C1265      C1268   1.456       .  A
C1266      C1280   1.371       .  A
C1266      C1269   1.446       .  A
C1267      C1270   1.376       .  A
C1268      C1274   1.395       .  A
C1269      C1277   1.384       .  A
C1270      H1283   1.080       .  S
C1270      N1271   1.361       .  A
N1271      C1272   1.364       .  A
N1271      N1409   1.419       .  S
C1272      H1273   1.080       .  S
C1274      H1284   1.073       .  S
C1274      N1275   1.364       .  A
N1275      C1276   1.361       .  A
N1275      C1658   1.468       .  S
C1276      H1282   1.079       .  S
C1277      H1279   1.083       .  S
C1277      N1278   1.357       .  A
N1278      C1280   1.361       .  A
N1278      C1638   1.441       .  S
C1280      H1281   1.053       .  S
Zn1285     O1289   2.097       .  S
Zn1285     O1290   1.974   1_565  S
Zn1285     O1294   2.134   1_655  S
Zn1285     O1301   1.992       .  S
Zn1286     O1291   2.036       .  S
Zn1286     O1293   2.178       .  S
Zn1286     O1297   1.970       .  S
Zn1287     O1292   2.135   1_655  S
Zn1287     O1295   1.980       .  S
Zn1287     O1298   1.974   1_556  S
Zn1288     O1289   1.983       .  S
Zn1288     O1296   2.123       .  S
Zn1288     O1299   1.983       .  S
Zn1288     O1300   2.000       .  S
O1290      C1302   1.266       .  A
O1291      C1303   1.264       .  A
O1294      C1304   1.288       .  A
O1295      C1303   1.256       .  A
O1296      C1305   1.280       .  A
O1299      C1306   1.266       .  A
O1300      C1307   1.265       .  A
O1301      C1307   1.251       .  A
C1302      C1749   1.510       .  S
C1303      C1329   1.451       .  S
C1304      C1589   1.516       .  S
C1305      C1609   1.517       .  S
C1306      C1698   1.475       .  S
C1307      C1327   1.467       .  S
Zn1308     O1312   1.993       .  S
Zn1308     O1313   2.003   1_565  S
Zn1308     O1317   1.982       .  S
Zn1308     O1324   1.963   1_655  S
Zn1309     O1312   1.959       .  S
Zn1309     O1314   2.105       .  S
Zn1309     O1316   2.040   1_565  S
Zn1309     O1320   1.961       .  S
Zn1310     O1312   1.968       .  S
Zn1310     O1315   2.032       .  S
Zn1310     O1318   2.165       .  S
Zn1310     O1321   2.073       .  S
Zn1311     O1312   1.992       .  S
Zn1311     O1319   1.968       .  S
Zn1311     O1322   1.917       .  S
Zn1311     O1323   2.007   1_655  S
O1313      C1325   1.266       .  A
O1314      C1326   1.286       .  A
O1315      C1327   1.263       .  A
O1316      C1325   1.272       .  A
O1317      C1327   1.265       .  A
O1318      C1326   1.293       .  A
O1319      C1328   1.264       .  A
O1320      C1329   1.253       .  A
O1321      C1328   1.277       .  A
O1322      C1329   1.264       .  A
O1323      C1330   1.261       .  A
O1324      C1330   1.256       .  A
C1325      C1709   1.478       .  S
C1326      C1649   1.517       .  S
C1328      C1578   1.478       .  S
C1330      C1558   1.463       .  S
C1331      C1333   1.553       .  S
C1331      C1335   1.568   1_455  S
C1331      C1334   1.547       .  S
C1331      C1354   1.750       .  S
C1332      C1336   1.583       .  S
C1332      C1338   1.571   1_455  S
C1332      C1337   1.586       .  S
C1332      C1355   1.790       .  S
C1333      C1341   1.373   1_455  A
C1334      C1345   1.373       .  A
C1335      C1349   1.383       .  A
C1336      C1339   1.378   1_455  A
C1337      C1343   1.388       .  A
C1338      C1346   1.378       .  A
C1339      H1352   1.079       .  S
C1339      N1340   1.366       .  A
C1341      H1342   1.079       .  S
C1343      H1353   1.065       .  S
N1344      C1345   1.346   1_554  A
N1344      C1529   1.440       .  S
C1345      H1351   1.077       .  S
C1346      H1348   1.075       .  S
C1346      N1347   1.362       .  A
N1347      C1618   1.446       .  S
C1349      H1350   1.081       .  S
C1354      C1356   1.558   1_455  S
C1354      C1358   1.563       .  S
C1354      C1357   1.543       .  S
C1355      C1359   1.570   1_455  S
C1355      C1361   1.594       .  S
C1355      C1360   1.569       .  S
C1356      C1364   1.371       .  A
C1356      C1359   1.445       .  A
C1357      C1368   1.365       .  A
C1357      C1360   1.442       .  A
C1358      C1372   1.385       .  A
C1358      C1361   1.458       .  A
C1359      C1362   1.378       .  A
C1360      C1366   1.377       .  A
C1361      C1369   1.380       .  A
C1362      H1375   1.079       .  S
C1362      N1363   1.364       .  A
N1363      C1364   1.360       .  A
C1364      H1365   1.080       .  S
C1366      H1376   1.074       .  S
C1366      N1367   1.361       .  A
N1367      C1368   1.348       .  A
N1367      C1569   1.429       .  S
C1368      H1374   1.080       .  S
C1369      H1371   1.066       .  S
C1369      N1370   1.356       .  A
N1370      C1372   1.349       .  A
N1370      C1509   1.451       .  S
C1372      H1373   1.077       .  S
C1377      C1379   1.554       .  S
C1377      C1381   1.558       .  S
C1377      C1380   1.588   1_545  S
C1377      C1401   1.772       .  S
C1378      C1382   1.572   1_545  S
C1378      C1384   1.569       .  S
C1378      C1383   1.579   1_545  S
C1378      C1400   1.781       .  S
C1379      C1387   1.375   1_545  A
C1380      C1391   1.390       .  A
C1381      C1395   1.371       .  A
C1382      C1385   1.380       .  A
C1383      C1389   1.394       .  A
C1384      C1392   1.371       .  A
C1385      H1398   1.079       .  S
N1386      C1387   1.357       .  A
C1387      H1388   1.079       .  S
C1389      H1399   1.081       .  S
N1390      C1391   1.362       .  A
N1390      C1598   1.462       .  S
C1391      H1397   1.056       .  S
C1392      H1394   1.036       .  S
C1392      N1393   1.344       .  A
N1393      C1498   1.439       .  S
C1395      H1396   1.062       .  S
C1400      C1402   1.574   1_545  S
C1400      C1404   1.593       .  S
C1400      C1403   1.551       .  S
C1401      C1405   1.570   1_545  S
C1401      C1407   1.558       .  S
C1401      C1406   1.545       .  S
C1402      C1410   1.378       .  A
C1402      C1405   1.460       .  A
C1403      C1414   1.372       .  A
C1403      C1406   1.438       .  A
C1404      C1418   1.390       .  A
C1404      C1407   1.457       .  A
C1405      C1408   1.379       .  A
C1406      C1412   1.359       .  A
C1407      C1415   1.371       .  A
C1408      H1421   1.078       .  S
C1408      N1409   1.360       .  A
N1409      C1410   1.359       .  A
C1410      H1411   1.078       .  S
C1412      H1422   1.058       .  S
C1412      N1413   1.352       .  A
N1413      C1414   1.354       .  A
N1413      C1549   1.425       .  S
C1414      H1420   1.075       .  S
C1415      H1417   1.075       .  S
C1415      N1416   1.344       .  A
N1416      C1418   1.357       .  A
N1416      C1469   1.444       .  S
C1418      H1419   1.076       .  S
Zn1423     O1427   2.283   1_556  S
Zn1423     O1428   2.038       .  S
Zn1423     O1432   2.004       .  S
Zn1423     O1439   2.025   1_556  S
Zn1424     O1429   1.976       .  S
Zn1424     O1431   2.061       .  S
Zn1424     O1435   2.328       .  S
Zn1425     O1427   2.029   1_556  S
Zn1425     O1430   2.368       .  S
Zn1425     O1433   2.050       .  S
Zn1425     O1436   2.055       .  S
Zn1426     O1434   2.019       .  S
Zn1426     O1437   2.447       .  S
Zn1426     O1438   1.989       .  S
O1428      C1440   1.271   1_556  A
O1430      C1442   1.410       .  A
O1432      C1442   1.267       .  A
O1433      C1441   1.284   1_556  A
O1435      C1444   1.387       .  A
O1436      C1443   1.281   1_556  A
O1437      C1444   1.395       .  A
O1439      C1445   1.266       .  A
C1440      C1669   1.487       .  S
C1441      C1538   1.498       .  S
C1442      C1464   1.333       .  S
C1443      C1489   1.505       .  S
C1444      C1468   1.335       .  S
C1445      C1769   1.506       .  S
Zn1446     O1450   2.191       .  S
Zn1446     O1451   2.031       .  S
Zn1446     O1455   2.014       .  S
Zn1446     O1462   2.121       .  S
Zn1447     O1450   2.247       .  S
Zn1447     O1452   2.411       .  S
Zn1447     O1454   1.992       .  S
Zn1447     O1458   1.957       .  S
Zn1448     O1450   2.331       .  S
Zn1448     O1453   2.027       .  S
Zn1448     O1456   2.422       .  S
Zn1448     O1459   1.984       .  S
Zn1449     O1450   1.922       .  S
Zn1449     O1457   2.122       .  S
Zn1449     O1460   2.136       .  S
Zn1449     O1461   2.402       .  S
O1451      C1463   1.272       .  A
O1452      C1464   1.388       .  A
O1453      C1465   1.273       .  A
O1454      C1463   1.267       .  A
O1455      C1465   1.271       .  A
O1456      C1464   1.394       .  A
O1457      C1466   1.294       .  A
O1458      C1467   1.276       .  A
O1459      C1466   1.279       .  A
O1460      C1467   1.299       .  A
O1461      C1468   1.413       .  A
O1462      C1468   1.285       .  A
C1463      C1738   1.502       .  S
C1465      C1629   1.486       .  S
C1466      C1518   1.501       .  S
C1467      C1478   1.482       .  S
C1469      C1470   1.398       .  A
C1469      C1474   1.411       .  A
C1470      C1471   1.413       .  A
C1470     Br1482   1.927       .  S
C1471      C1472   1.438       .  A
C1471     Br1486   1.948       .  S
C1472      C1473   1.423       .  A
C1472      C1475   1.516       .  S
C1473      C1474   1.400       .  A
C1473     Br1481   1.942       .  S
C1474     Br1485   1.917       .  S
C1475      C1476   1.411       .  A
C1475      C1480   1.426       .  A
C1476      C1477   1.403       .  A
C1476     Br1487   1.919       .  S
C1477      C1478   1.414       .  A
C1477     Br1483   1.922       .  S
C1478      C1479   1.398       .  A
C1479      C1480   1.406       .  A
C1479     Br1488   1.926       .  S
C1480     Br1484   1.896       .  S
C1489      C1490   1.413       .  A
C1490      C1491   1.422   1_554  A
C1490     Br1502   1.915       .  S
C1491      C1492   1.438       .  A
C1491     Br1506   1.936       .  S
C1492      C1495   1.537       .  S
C1493      C1494   1.391       .  A
C1493     Br1501   1.906       .  S
C1494     Br1505   1.920       .  S
C1495      C1496   1.435       .  A
C1496      C1497   1.406       .  A
C1496     Br1507   1.940       .  S
C1497      C1498   1.393       .  A
C1497     Br1503   1.931       .  S
C1499      C1500   1.397       .  A
C1499     Br1508   1.933       .  S
C1500     Br1504   1.928       .  S
C1509      C1510   1.402       .  A
C1509      C1514   1.399       .  A
C1510      C1511   1.403       .  A
C1510     Br1522   1.924       .  S
C1511      C1512   1.431       .  A
C1511     Br1526   1.919       .  S
C1512      C1513   1.430       .  A
C1512      C1515   1.535       .  S
C1513      C1514   1.417       .  A
C1513     Br1521   1.921       .  S
C1514     Br1525   1.921       .  S
C1515      C1516   1.425       .  A
C1515      C1520   1.430       .  A
C1516      C1517   1.409       .  A
C1516     Br1527   1.911       .  S
C1517      C1518   1.406       .  A
C1517     Br1523   1.938       .  S
C1518      C1519   1.421       .  A
C1519      C1520   1.420       .  A
C1519     Br1528   1.939       .  S
C1520     Br1524   1.939       .  S
C1529      C1534   1.397   1_554  A
C1530      C1531   1.414       .  A
C1530     Br1542   1.931       .  S
C1531     Br1546   1.930       .  S
C1532      C1533   1.413   1_554  A
C1532      C1535   1.514       .  S
C1533      C1534   1.406       .  A
C1533     Br1541   1.898       .  S
C1534     Br1545   1.920       .  S
C1535      C1540   1.420       .  A
C1536      C1537   1.395       .  A
C1536     Br1547   1.912       .  S
C1537     Br1543   1.957       .  S
C1538      C1539   1.417       .  A
C1539      C1540   1.416       .  A
C1539     Br1548   1.926       .  S
C1540     Br1544   1.936       .  S
C1549      C1550   1.397   1_545  A
C1549      C1554   1.398       .  A
C1550      C1551   1.388       .  A
C1550     Br1562   1.932       .  S
C1551      C1552   1.419   1_565  A
C1551     Br1566   1.922       .  S
C1552      C1553   1.429       .  A
C1552      C1555   1.502       .  S
C1553      C1554   1.411       .  A
C1553     Br1561   1.933       .  S
C1554     Br1565   1.924       .  S
C1555      C1556   1.427       .  A
C1555      C1560   1.430   1_545  A
C1556      C1557   1.405       .  A
C1556     Br1567   1.936       .  S
C1557      C1558   1.407   1_545  A
C1557     Br1563   1.939       .  S
C1558      C1559   1.395       .  A
C1559      C1560   1.398       .  A
C1559     Br1568   1.930       .  S
C1560     Br1564   1.942       .  S
C1569      C1570   1.396   1_455  A
C1569      C1574   1.401       .  A
C1570      C1571   1.397       .  A
C1570     Br1582   1.933       .  S
C1571      C1572   1.425   1_655  A
C1571     Br1586   1.918       .  S
C1572      C1573   1.425       .  A
C1572      C1575   1.512       .  S
C1573      C1574   1.411       .  A
C1573     Br1581   1.932       .  S
C1574     Br1585   1.925       .  S
C1575      C1576   1.426       .  A
C1575      C1580   1.422   1_455  A
C1576      C1577   1.410       .  A
C1576     Br1587   1.940       .  S
C1577      C1578   1.412   1_455  A
C1577     Br1583   1.935       .  S
C1578      C1579   1.402       .  A
C1579      C1580   1.406       .  A
C1579     Br1588   1.934       .  S
C1580     Br1584   1.921       .  S
C1589      C1594   1.417       .  A
C1590      C1591   1.435       .  A
C1590     Br1602   1.935       .  S
C1591     Br1606   1.936       .  S
C1592      C1593   1.431       .  A
C1593      C1594   1.429       .  A
C1593     Br1601   1.933       .  S
C1594     Br1605   1.930       .  S
C1595      C1596   1.433   1_556  A
C1596      C1597   1.434       .  A
C1596     Br1607   1.933       .  S
C1597     Br1603   1.924       .  S
C1598      C1599   1.403       .  A
C1599      C1600   1.414       .  A
C1599     Br1608   1.924   1_565  S
C1600     Br1604   1.909   1_565  S
C1609      C1610   1.419       .  A
C1610      C1611   1.424       .  A
C1610     Br1622   1.932       .  S
C1611     Br1626   1.937       .  S
C1612      C1613   1.424       .  A
C1613      C1614   1.405       .  A
C1613     Br1621   1.931   1_654  S
C1614     Br1625   1.943   1_655  S
C1615      C1616   1.424       .  A
C1616      C1617   1.399       .  A
C1616     Br1627   1.909   1_655  S
C1617      C1618   1.397       .  A
C1617     Br1623   1.932   1_655  S
C1619      C1620   1.421       .  A
C1619     Br1628   1.923   1_554  S
C1620     Br1624   1.932   1_554  S
C1629      C1630   1.409       .  A
C1629      C1634   1.405       .  A
C1630      C1631   1.411       .  A
C1630     Br1642   1.932       .  S
C1631      C1632   1.426       .  A
C1631     Br1646   1.938       .  S
C1632      C1633   1.428       .  A
C1632      C1635   1.518       .  S
C1633      C1634   1.410       .  A
C1633     Br1641   1.928       .  S
C1634     Br1645   1.935       .  S
C1635      C1636   1.422       .  A
C1635      C1640   1.431       .  A
C1636      C1637   1.398       .  A
C1636     Br1647   1.924       .  S
C1637      C1638   1.397       .  A
C1637     Br1643   1.931       .  S
C1638      C1639   1.406       .  A
C1639      C1640   1.421       .  A
C1639     Br1648   1.925       .  S
C1640     Br1644   1.938       .  S
C1649      C1650   1.412       .  A
C1649      C1654   1.404       .  A
C1650      C1651   1.430       .  A
C1650     Br1662   1.931       .  S
C1651      C1652   1.434       .  A
C1651     Br1666   1.928       .  S
C1652      C1653   1.435       .  A
C1652      C1655   1.562       .  S
C1653      C1654   1.423       .  A
C1653     Br1661   1.913       .  S
C1654     Br1665   1.934       .  S
C1655      C1656   1.437       .  A
C1655      C1660   1.428       .  A
C1656      C1657   1.435       .  A
C1656     Br1667   1.936       .  S
C1657      C1658   1.412       .  A
C1657     Br1663   1.925       .  S
C1658      C1659   1.405       .  A
C1659      C1660   1.420       .  A
C1659     Br1668   1.928       .  S
C1660     Br1664   1.907       .  S
C1669      C1674   1.407   1_554  A
C1670      C1671   1.418       .  A
C1670     Br1682   1.935       .  S
C1671     Br1686   1.921       .  S
C1672      C1673   1.422   1_554  A
C1672      C1675   1.512   1_554  S
C1673      C1674   1.415       .  A
C1673     Br1681   1.929       .  S
C1674     Br1685   1.931       .  S
C1675      C1680   1.416       .  A
C1676      C1677   1.427       .  A
C1676     Br1687   1.926       .  S
C1677     Br1683   1.925       .  S
C1678      C1679   1.401       .  A
C1679      C1680   1.397       .  A
C1679     Br1688   1.925       .  S
C1680     Br1684   1.913       .  S
C1689      C1694   1.395       .  A
C1690      C1691   1.413       .  A
C1690     Br1702   1.928       .  S
C1691     Br1706   1.932       .  S
C1692      C1693   1.427       .  A
C1692      C1695   1.515       .  S
C1693      C1694   1.389       .  A
C1693     Br1701   1.925       .  S
C1694     Br1705   1.935       .  S
C1695      C1696   1.427       .  A
C1696      C1697   1.409       .  A
C1696     Br1707   1.938       .  S
C1697      C1698   1.410       .  A
C1697     Br1703   1.931       .  S
C1699      C1700   1.395       .  A
C1699     Br1708   1.939       .  S
C1700     Br1704   1.926       .  S
C1709      C1710   1.397       .  A
C1709      C1714   1.408       .  A
C1710      C1711   1.407       .  A
C1710     Br1722   1.937       .  S
C1711      C1712   1.429       .  A
C1711     Br1726   1.915       .  S
C1712      C1713   1.431       .  A
C1712      C1715   1.525       .  S
C1713      C1714   1.413       .  A
C1713     Br1721   1.942       .  S
C1714     Br1725   1.936       .  S
C1715      C1716   1.432       .  A
C1715      C1720   1.429       .  A
C1716      C1717   1.416       .  A
C1716     Br1727   1.935       .  S
C1717      C1718   1.401       .  A
C1717     Br1723   1.926       .  S
C1718      C1719   1.396       .  A
C1719      C1720   1.398       .  A
C1719     Br1728   1.932       .  S
C1720     Br1724   1.917       .  S
C1729      C1730   1.395       .  A
C1729      C1734   1.397       .  A
C1730      C1731   1.393       .  A
C1730     Br1742   1.932       .  S
C1731      C1732   1.423       .  A
C1731     Br1746   1.915       .  S
C1732      C1733   1.430       .  A
C1732      C1735   1.512       .  S
C1733      C1734   1.410       .  A
C1733     Br1741   1.932       .  S
C1734     Br1745   1.925       .  S
C1735      C1736   1.419       .  A
C1735      C1740   1.421       .  A
C1736      C1737   1.412       .  A
C1736     Br1747   1.942       .  S
C1737      C1738   1.423       .  A
C1737     Br1743   1.929       .  S
C1738      C1739   1.417       .  A
C1739      C1740   1.408       .  A
C1739     Br1748   1.949       .  S
C1740     Br1744   1.925       .  S
C1749      C1750   1.427       .  A
C1750      C1751   1.407       .  A
C1750     Br1762   1.955       .  S
C1751     Br1766   1.933       .  S
C1752      C1753   1.436       .  A
C1753      C1754   1.430       .  A
C1753     Br1761   1.935       .  S
C1754     Br1765   1.935       .  S
C1755      C1756   1.433       .  A
C1756      C1757   1.422       .  A
C1756     Br1767   1.938       .  S
C1757      C1758   1.406       .  A
C1757     Br1763   1.923       .  S
C1759      C1760   1.406       .  A
C1759     Br1768   1.932       .  S
C1760     Br1764   1.905       .  S
C1769      C1770   1.415   1_554  A
C1770      C1771   1.411       .  A
C1770     Br1782   1.932       .  S
C1771      C1772   1.423   1_556  A
C1771     Br1786   1.939       .  S
C1772      C1775   1.514       .  S
C1773      C1774   1.393       .  A
C1773     Br1781   1.918       .  S
C1774     Br1785   1.945       .  S
C1775      C1776   1.423       .  A
C1776      C1777   1.390       .  A
C1776     Br1787   1.909   1_554  S
C1777      C1778   1.393       .  A
C1777     Br1783   1.931       .  S
C1779      C1780   1.415       .  A
C1779     Br1788   1.925       .  S
C1780     Br1784   1.943       .  S
