geometry optimzed in LAMMPS
_audit_creation_date              2020-11-30 
_audit_creation_method            'lammps2cif' 
_symmetry_space_group_name_H-M    'P1' 
_symmetry_Int_Tables_number       1 
_symmetry_cell_setting            triclinic 
loop_ 
_symmetry_equiv_pos_as_xyz 
  x,y,z 
_cell_length_a                    25.50072434 
_cell_length_b                    25.916270893880096 
_cell_length_c                    27.559410965499385 
_cell_angle_alpha                 86.47386693421554 
_cell_angle_beta                  89.70217296861998 
_cell_angle_gamma                 97.25628961301605 
loop_ 
_atom_site_label 
_atom_site_type_symbol 
_atom_site_fract_x 
_atom_site_fract_y 
_atom_site_fract_z 
_atom_site_charge 
C1          C  0.85851557  0.35865208  0.30969906     0.32000
C2          C  0.85021879  0.35958935  0.08102231     0.32000
C3          C  0.83976950  0.30616714  0.33888739    -0.04200
C4          C  0.91116373  0.37502797  0.33775358    -0.05000
C5          C  0.82133290  0.39413346  0.33181433    -0.04900
C6          C  0.83746693  0.30632173  0.05713204    -0.04200
C7          C  0.90349074  0.38305265  0.05505614    -0.05000
C8          C  0.81447131  0.39318910  0.04984545    -0.04900
C9          C  0.83189359  0.25438987  0.07434763    -0.30300
N10         N  0.83247264  0.22354999  0.36964765     0.16200
C11         C  0.83626599  0.25443190  0.32791961    -0.30300
H12         H  0.84000333  0.24005432  0.29228849     0.18200
C13         C  0.92667989  0.43451061  0.05721888    -0.29300
N14         N  0.96252050  0.44815489  0.02200487     0.14900
C15         C  0.95408586  0.41112320  0.32261758    -0.29200
C16         C  0.77876832  0.42832140  0.05721217    -0.29500
N17         N  0.76560305  0.44968433  0.34671029     0.15500
H18         H  0.76242145  0.43699924  0.09158197     0.18100
C19         C  0.79366137  0.43153342  0.31160089    -0.29500
H20         H  0.79026876  0.44180411  0.27318537     0.18100
H21         H  0.97505955  0.41229270  0.28842670     0.18100
H22         H  0.83092355  0.23989343  0.11198068     0.18200
H23         H  0.91211742  0.46310509  0.07892477     0.18100
C24         C  0.85125192  0.35740543  0.14350649     0.32000
C25         C  0.85662660  0.35988939  0.24827159     0.32000
C26         C  0.88121613  0.31646192  0.17176047    -0.04200
C27         C  0.88241735  0.40549863  0.16549503    -0.05000
C28         C  0.79755511  0.35062652  0.17363764    -0.04900
C29         C  0.88483872  0.31849597  0.22332288    -0.04200
C30         C  0.87846450  0.41154046  0.21668773    -0.05000
C31         C  0.80090581  0.34920258  0.22527331    -0.04900
C32         C  0.91995054  0.28466961  0.23853225    -0.30300
N33         N  0.93655865  0.26200771  0.19926483     0.16200
C34         C  0.91498895  0.28202660  0.15864554    -0.30300
H35         H  0.92384802  0.27230335  0.12214746     0.18200
C36         C  0.91919730  0.45079573  0.22580182    -0.29300
N37         N  0.95381684  0.45778653  0.18774800     0.14900
C38         C  0.93522132  0.42408051  0.15594843    -0.29200
C39         C  0.75002451  0.34877874  0.24347004    -0.29500
N40         N  0.71625973  0.35401194  0.20635421     0.15500
H41         H  0.73869130  0.34923587  0.28124537     0.18100
C42         C  0.74422544  0.35406612  0.16382896    -0.29500
H43         H  0.72743281  0.35926232  0.12826042     0.18100
H44         H  0.96162086  0.40707704  0.13268032     0.18100
H45         H  0.93231156  0.27671733  0.27545976     0.18200
H46         H  0.92383329  0.47151349  0.25852723     0.18100
C47         C  0.57320350  0.87690904  0.07943382     0.32000
C48         C  0.57814036  0.86992119  0.30829050     0.32000
C49         C  0.55760813  0.92406777  0.04688106    -0.04200
C50         C  0.62682125  0.87333977  0.05604665    -0.05000
C51         C  0.54030710  0.82902126  0.05674645    -0.04900
C52         C  0.55176125  0.91447108  0.99636432    -0.04200
C53         C  0.63116583  0.87089985  0.00476693    -0.05000
C54         C  0.54417378  0.82458485  0.00527225    -0.04900
C55         C  0.49914380  0.92325726  0.32227462    -0.30300
N56         N  0.48469287  0.95508822  0.02070556     0.16200
C57         C  0.52044210  0.95644021  0.05671165    -0.30300
H58         H  0.51837441  0.97714394  0.08925950     0.18200
C59         C  0.68311465  0.86262936  0.33002334    -0.29300
N60         N  0.70835906  0.86034720  0.04063915     0.14900
C61         C  0.67435204  0.86699513  0.07613097    -0.29200
C62         C  0.51581068  0.77711215  0.32929650    -0.29500
N63         N  0.49682281  0.75266708  0.03880035     0.15500
H64         H  0.51254489  0.75992176  0.29450520     0.18100
C65         C  0.51019481  0.78410603  0.07548397    -0.29500
H66         H  0.50224624  0.77311885  0.11358482     0.18100
H67         H  0.68411373  0.86693640  0.11429398     0.18100
H68         H  0.47083476  0.90168368  0.29966725     0.18200
H69         H  0.70136143  0.85810938  0.29526450     0.18100
C70         C  0.58118419  0.87355329  0.24554876     0.32000
C71         C  0.57403159  0.87799595  0.14063387     0.32000
C72         C  0.52996970  0.88862160  0.22085575    -0.04200
C73         C  0.62006119  0.91615111  0.21577591    -0.05000
C74         C  0.59164581  0.82445438  0.21829695    -0.04900
C75         C  0.52174976  0.88167257  0.16991955    -0.04200
C76         C  0.61444156  0.91938699  0.16395597    -0.05000
C77         C  0.59094548  0.82924243  0.16676736    -0.04900
C78         C  0.48273250  0.91232417  0.15659548    -0.30300
N79         N  0.47866971  0.94699449  0.19048895     0.16200
C80         C  0.51254920  0.93687648  0.22489242    -0.34700
H81         H  0.53125703  0.96726933  0.24650337     0.18200
C82         C  0.65108761  0.95923657  0.14558450    -0.29300
N83         N  0.67936833  0.97989056  0.18273520     0.14900
C84         C  0.66110160  0.95428065  0.22546045    -0.29200
C85         C  0.60403060  0.78461674  0.14963555    -0.29500
N86         N  0.60751318  0.74997044  0.18711447     0.15500
H87         H  0.60540170  0.77545175  0.11192527     0.18100
C88         C  0.60051505  0.77311651  0.22949078    -0.29500
H89         H  0.59911055  0.75333135  0.26526209     0.18100
H90         H  0.67867509  0.96059939  0.26060850     0.18100
H91         H  0.46190066  0.91181580  0.12270881     0.18200
H92         H  0.65972357  0.96953341  0.10745667     0.18100
O93         O  0.04758575  0.09055716  0.28501849    -0.78900
O94         O  0.86398802  0.94236759  0.06208813    -0.63600
O95         O  0.98489356  0.02962453  0.01180248    -1.10200
C96         C  0.06117847  0.87305752  0.00596994     1.08000
O97         O  0.89716571  0.86750775  0.08303392    -0.76800
O98         O  0.99561997  0.93245807  0.10325609    -0.64400
Ni99       Ni  0.97144904  0.08195263  0.29836184     1.34900
C100        C  0.02611778  0.97262576  0.08915764     0.86700
O101        O  0.89130905  0.04754463  0.05600556    -0.77400
O102        O  0.89849856  0.08342475  0.31453268    -0.87600
C103        C  0.85887472  0.89364715  0.07215142     0.86300
O104        O  0.95080064  0.02330306  0.26281133    -0.65800
O105        O  0.04509534  0.87315803  0.04941030    -0.85100
C106        C  0.91828859  0.98397379  0.27574543     0.87100
C107        C  0.88209172  0.08351470  0.35797272     1.08700
H108        H  0.93799080  0.90581546  0.33197114     0.40500
O109        O  0.95938135  0.92786298  0.01958109    -1.07800
O110        O  0.05477263  0.97242041  0.05195425    -0.64400
Ni111      Ni  0.01981230  0.97065903  0.99155512     1.26300
O112        O  0.88913082  0.98468290  0.31241273    -0.64700
O113        O  0.05236568  0.90944532  0.97467507    -0.77000
C114        C  0.08596723  0.06362485  0.96138048     0.86500
O115        O  0.08008745  0.01447013  0.96789383    -0.64100
Ni116      Ni  0.97269749  0.87519677  0.06680208     1.27400
Ni117      Ni  0.92425071  0.98668277  0.03946312     1.26100
H118        H  0.00626819  0.05161989  0.03223842     0.41000
O119        O  0.11408832  0.99824729  0.17650318    -0.78900
O120        O  0.87074153  0.02964103  0.15822377    -0.63600
O121        O  0.01088397  0.00407708  0.20132086    -1.10200
C122        C  0.95153313  0.82658115  0.17483872     1.08000
O123        O  0.82495771  0.95096127  0.17824707    -0.76800
O124        O  0.87847088  0.90695113  0.24601905    -0.64400
Ni125      Ni  0.07279025  0.05363847  0.18334709     1.34900
C126        C  0.92102608  0.93450432  0.25419267     0.86700
O127        O  0.95039582  0.08964200  0.19392107    -0.77400
O128        O  0.03767602  0.11486674  0.18848831    -0.87600
C129        C  0.82769654  0.99953707  0.16762060     0.86300
O130        O  0.05958061  0.05297465  0.11716625    -0.65800
O131        O  0.90488618  0.83575633  0.18380232    -0.85100
C132        C  0.01942964  0.02200172  0.10931760     0.87100
C133        C  0.99029002  0.12407713  0.19392323     1.08700
H134        H  0.92279161  0.95237954  0.12783334     0.40500
O135        O  0.93010888  0.94693116  0.16157037    -1.07800
O136        O  0.96520578  0.91746382  0.24572517    -0.64400
Ni137      Ni  0.00001043  0.93354913  0.18406069     1.26300
O138        O  0.97363976  0.03528202  0.11748224    -0.64700
O139        O  0.99068935  0.86163971  0.16947997    -0.77000
C140        C  0.11206157  0.95119950  0.19296712     0.86500
O141        O  0.06949043  0.92248660  0.20689251    -0.64100
Ni142      Ni  0.86863087  0.89682398  0.18026476     1.27400
Ni143      Ni  0.94066461  0.01773898  0.17956337     1.26100
H144        H  0.01937225  0.99833430  0.23486134     0.41000
C145        C  0.09837562  0.59510745  0.28870592     0.32000
C146        C  0.09074521  0.59610098  0.06013643     0.32000
C147        C  0.10462709  0.64891547  0.97872875    -0.04200
C148        C  0.04913232  0.56481205  0.98254284    -0.05000
C149        C  0.14081206  0.56843719  0.98592634    -0.04900
C150        C  0.10154475  0.64953987  0.03025684    -0.04200
C151        C  0.04056680  0.57268449  0.03261162    -0.05000
C152        C  0.13527278  0.56747749  0.03769163    -0.04900
C153        C  0.10423370  0.70151104  0.04055200    -0.30300
N154        N  0.10840332  0.73180421  0.99826259     0.16200
C155        C  0.10993577  0.70048117  0.96073270    -0.30300
H156        H  0.11169758  0.71429041  0.25636532     0.18200
C157        C  0.99971779  0.53503665  0.04846871    -0.29300
N158        N  0.99398412  0.49729581  0.01644455     0.14900
C159        C  0.02913780  0.51207881  0.31432907    -0.29200
C160        C  0.17354646  0.53910568  0.05691698    -0.29500
N161        N  0.20285871  0.52442657  0.02024029     0.15500
H162        H  0.18042693  0.53057699  0.09512055     0.18100
C163        C  0.18314725  0.54125933  0.97696797    -0.29500
H164        H  0.19793341  0.53451156  0.27461401     0.18100
H165        H  0.04461130  0.48432384  0.29224808     0.18100
H166        H  0.10065293  0.71624712  0.07611363     0.18200
H167        H  0.97847212  0.53373452  0.08254753     0.18100
C168        C  0.08928989  0.59473234  0.12163229     0.32000
C169        C  0.09556993  0.59769042  0.22630831     0.32000
C170        C  0.05452934  0.63065416  0.14722616    -0.04200
C171        C  0.07553047  0.54089127  0.15318406    -0.05000
C172        C  0.14244983  0.61470159  0.14386238    -0.04900
C173        C  0.05841925  0.63293290  0.19893421    -0.04200
C174        C  0.07172512  0.54648989  0.20467006    -0.05000
C175        C  0.14730950  0.61376074  0.19514449    -0.04900
C176        C  0.02462484  0.66710987  0.21221490    -0.30300
N177        N  0.00270526  0.68687094  0.17163688     0.16200
C178        C  0.01968983  0.66470078  0.13212039    -0.30300
H179        H  0.00916381  0.67443399  0.09499256     0.18200
C180        C  0.02085550  0.52311095  0.21556774    -0.29300
N181        N  0.00384109  0.48862687  0.18412772     0.14900
C182        C  0.03717494  0.49851316  0.14523516    -0.29200
C183        C  0.20093785  0.62775773  0.20294951    -0.29500
N184        N  0.22645077  0.63876217  0.15906062     0.15500
H185        H  0.22041124  0.62659288  0.23770216     0.18100
C186        C  0.19071450  0.63291238  0.12355735    -0.29500
H187        H  0.20063884  0.63672310  0.08519368     0.18100
H188        H  0.03292647  0.47766547  0.11258931     0.18100
H189        H  0.01754633  0.67838706  0.24855967     0.18200
H190        H  0.99328870  0.53873324  0.23872065     0.18100
C191        C  0.36396589  0.07957560  0.06283343     0.32000
C192        C  0.36685119  0.07211636  0.29192384     0.32000
C193        C  0.37774673  0.02845665  0.04199973    -0.04200
C194        C  0.31334794  0.08928824  0.03278943    -0.05000
C195        C  0.40682851  0.11711144  0.03251682    -0.04900
C196        C  0.37174446  0.02052887  0.32403629    -0.04200
C197        C  0.31690253  0.08751975  0.31482078    -0.05000
C198        C  0.40860795  0.11122244  0.31490232    -0.04900
C199        C  0.40362291  0.98213994  0.31493694    -0.30300
N200        N  0.43686156  0.97703354  0.01950415     0.16200
C201        C  0.42559342  0.01069162  0.05074976    -0.30300
H202        H  0.45683091  0.03177782  0.07060946     0.18200
C203        C  0.26989938  0.09614772  0.29495225    -0.29300
N204        N  0.23613858  0.10140682  0.99743479     0.14900
C205        C  0.26083430  0.09676049  0.04124371    -0.29200
C206        C  0.44993419  0.14501581  0.29591906    -0.29500
N207        N  0.47243820  0.17294288  0.99827531     0.15500
H208        H  0.45995608  0.15270573  0.25771122     0.18100
C209        C  0.44702311  0.15629836  0.04115341    -0.29500
H210        H  0.45466934  0.17413970  0.07530759     0.18100
H211        H  0.24163226  0.09638921  0.07639707     0.18100
H212        H  0.40663343  0.96384183  0.28112797     0.18200
H213        H  0.25979511  0.09537133  0.25689652     0.18100
C214        C  0.36721092  0.07399882  0.23082547     0.32000
C215        C  0.36261614  0.07790279  0.12572835     0.32000
C216        C  0.41752595  0.06228599  0.20311674    -0.04200
C217        C  0.32239871  0.03831330  0.20676738    -0.05000
C218        C  0.36044543  0.12650631  0.20392220    -0.04900
C219        C  0.41032881  0.05585546  0.15203431    -0.04200
C220        C  0.31881205  0.04119780  0.15499745    -0.05000
C221        C  0.36038703  0.13003584  0.15210033    -0.04900
C222        C  0.42364435  0.00551554  0.14982629    -0.30300
N223        N  0.45565785  0.99364530  0.18543495     0.16200
C224        C  0.45293975  0.02898115  0.21886968    -0.30300
H225        H  0.47088963  0.02756559  0.25418569     0.18200
C226        C  0.27894089  0.00263958  0.14400563    -0.29300
N227        N  0.25905591  0.97730619  0.18617352     0.14900
C228        C  0.28504565  0.99862704  0.22423132    -0.29200
C229        C  0.36394103  0.18342602  0.13930418    -0.29500
N230        N  0.36504884  0.21016116  0.18070366     0.15500
H231        H  0.36780391  0.20147868  0.10279301     0.18100
C232        C  0.36196662  0.17581337  0.21959314    -0.29500
H233        H  0.36404727  0.18658622  0.25690693     0.18100
H234        H  0.27609905  0.98713629  0.26210079     0.18100
H235        H  0.40249118  0.97514357  0.12981901     0.18200
H236        H  0.26475266  0.99421846  0.10803581     0.18100
O237        O  0.60387077  0.50802736  0.27838708    -0.78900
O238        O  0.38035888  0.48901381  0.04976315    -0.63600
O239        O  0.52632476  0.49406433  0.00978148    -1.10200
C240        C  0.48609039  0.31983363  0.97997344     1.08000
O241        O  0.34308632  0.41429408  0.02153671    -0.76800
O242        O  0.43495252  0.39354860  0.07245395    -0.64400
Ni243      Ni  0.55737765  0.55185835  0.30618905     1.34900
C244        C  0.48533389  0.40384198  0.07400280     0.86700
O245        O  0.46838625  0.55793503  0.06051630    -0.77400
O246        O  0.51736422  0.60080589  0.33296666    -0.87600
C247        C  0.34018080  0.45954975  0.03599901     0.86300
O248        O  0.49947001  0.53126896  0.26752685    -0.65800
O249        O  0.44880319  0.32253950  0.00984249    -0.85100
C250        C  0.45095127  0.53347337  0.27474742     0.87100
C251        C  0.48710506  0.60035461  0.03605011     1.08700
H252        H  0.42936828  0.43817001  0.28977725     0.40500
O253        O  0.44329081  0.43111199  0.98835046    -1.07800
O254        O  0.51680037  0.39360083  0.04208080    -0.64400
Ni255      Ni  0.51756441  0.42777983  0.98067642     1.26300
O256        O  0.43068147  0.53323512  0.31490648    -0.64700
O257        O  0.50921422  0.35936410  0.95557072    -0.77000
C258        C  0.62220342  0.47090040  0.96869634     0.86500
O259        O  0.59228201  0.42902153  0.98061043    -0.64100
Ni260      Ni  0.39966106  0.37162945  0.01615852     1.27400
Ni261      Ni  0.45370016  0.49194851  0.03057785     1.26100
H262        H  0.55509080  0.49188407  0.03141463     0.41000
O263        O  0.35915796  0.39287184  0.18536578    -0.78900
O264        O  0.49444302  0.61533839  0.14436873    -0.63600
O265        O  0.42252731  0.47726673  0.15363414    -1.10200
C266        C  0.58679104  0.42871808  0.20336138     1.08000
O267        O  0.56198627  0.58665681  0.10973416    -0.76800
O268        O  0.52530058  0.48110116  0.10145458    -0.64400
Ni269      Ni  0.35142663  0.46564798  0.17724416     1.34900
C270        C  0.50757362  0.43357094  0.10986162     0.86700
O271        O  0.39527783  0.57673926  0.11653675    -0.77400
O272        O  0.33426117  0.53475119  0.16754566    -0.87600
C273        C  0.54352626  0.61988634  0.13506921     0.86300
O274        O  0.38476671  0.48601354  0.23485848    -0.65800
O275        O  0.59890071  0.45779358  0.16530853    -0.85100
C276        C  0.41699176  0.52795919  0.23694963     0.87100
C277        C  0.35099426  0.57328519  0.13896064     1.08700
H278        H  0.53215039  0.54311229  0.19840803     0.40500
O279        O  0.51616902  0.51941030  0.17638184    -1.07800
O280        O  0.50018456  0.41360495  0.15072029    -0.64400
Ni281      Ni  0.47896526  0.45262502  0.19758414     1.26300
O282        O  0.42718795  0.56213399  0.20329746    -0.64700
O283        O  0.54314244  0.43029228  0.22757480    -0.77000
C284        C  0.39479969  0.36583945  0.20009513     0.86500
O285        O  0.43914173  0.38570567  0.21639093    -0.64100
Ni286      Ni  0.57638117  0.52055371  0.13763725     1.27400
Ni287      Ni  0.45611328  0.54765129  0.14469994     1.26100
H288        H  0.42129229  0.46227113  0.12282363     0.41000
C289        C  0.37534044  0.26446578  0.18563381    -0.11300
C290        C  0.38482069  0.31014091  0.19438443    -0.12900
C291        C  0.50298061  0.26983608  0.97816840    -0.11300
C292        C  0.49657273  0.22371373  0.98768972    -0.12900
C293        C  0.31877222  0.61471870  0.13798765    -0.11300
C294        C  0.27917033  0.63261794  0.14886655    -0.12900
C295        C  0.28943661  0.47977466  0.03355260    -0.11300
C296        C  0.24883437  0.49942813  0.02713105    -0.12900
C297        C  0.16281106  0.93338686  0.19520497    -0.11300
C298        C  0.20977185  0.94650494  0.19109411    -0.12900
C299        C  0.96142622  0.77363929  0.17137610    -0.11300
C300        C  0.97739388  0.73187175  0.17032273    -0.12900
C301        C  0.18199601  0.09843482  0.98721847    -0.11300
C302        C  0.13768572  0.08899638  0.97187691    -0.12900
C303        C  0.08709928  0.82861442  0.99382200    -0.11300
C304        C  0.10001698  0.78490890  0.99383176    -0.12900
C305        C  0.57730824  0.65906554  0.15832725    -0.11300
C306        C  0.59588837  0.69749087  0.17766441    -0.12900
C307        C  0.73013757  0.00755936  0.17546336    -0.11300
C308        C  0.77716643  0.01817334  0.16834494    -0.12900
C309        C  0.47564517  0.65140926  0.04746355    -0.11300
C310        C  0.48078282  0.69862500  0.04553836    -0.12900
C311        C  0.80681707  0.86750272  0.06530872    -0.11300
C312        C  0.76201592  0.85971358  0.05104126    -0.12900
C313        C  0.98020731  0.17661398  0.19941812    -0.11300
C314        C  0.96321362  0.21785952  0.20071414    -0.12900
C315        C  0.66587960  0.37167467  0.21202191    -0.11300
C316        C  0.62549380  0.39263587  0.21505588    -0.12900
C317        C  0.85620319  0.12777983  0.37058032    -0.11300
C318        C  0.84238752  0.17091369  0.37250028    -0.12900
C319        C  0.67582010  0.47529769  0.98473825    -0.11300
C320        C  0.71827183  0.46862026  0.00120924    -0.12900
C321        C  0.85839850  0.35862034  0.64303152     0.32000
C322        C  0.84999358  0.35946938  0.41437402     0.32000
C323        C  0.83965563  0.30619446  0.67231848    -0.04200
C324        C  0.91113675  0.37499182  0.67097238    -0.05000
C325        C  0.82132482  0.39418225  0.66517561    -0.04900
C326        C  0.83724582  0.30619471  0.39050325    -0.04200
C327        C  0.90324698  0.38291975  0.38838953    -0.05000
C328        C  0.81422076  0.39303769  0.38323826    -0.04900
C329        C  0.83176007  0.25426367  0.40773506    -0.30300
N330        N  0.83274147  0.22366819  0.70328197     0.16200
C331        C  0.83641454  0.25443538  0.66148282    -0.30300
H332        H  0.84026423  0.23999005  0.62589331     0.18200
C333        C  0.92638399  0.43438487  0.39051574    -0.29300
N334        N  0.96220067  0.44804057  0.35529697     0.14900
C335        C  0.95418299  0.41094776  0.65577394    -0.29200
C336        C  0.77847879  0.42808741  0.39069195    -0.29500
N337        N  0.76563808  0.44979463  0.68002501     0.15500
H338        H  0.76210340  0.43665197  0.42508870     0.18100
C339        C  0.79358177  0.43149272  0.64492645    -0.29500
H340        H  0.79006712  0.44160964  0.60649687     0.18100
H341        H  0.97498139  0.41216557  0.62148366     0.18100
H342        H  0.83089740  0.23978789  0.44537265     0.18200
H343        H  0.91171726  0.46299969  0.41212471     0.18100
C344        C  0.85101340  0.35735709  0.47683921     0.32000
C345        C  0.85636241  0.35981661  0.58160193     0.32000
C346        C  0.88120938  0.31662054  0.50504142    -0.04200
C347        C  0.88187363  0.40559935  0.49885308    -0.05000
C348        C  0.79733489  0.35023733  0.50693976    -0.04900
C349        C  0.88482174  0.31861414  0.55659841    -0.04200
C350        C  0.87794736  0.41156156  0.55007448    -0.05000
C351        C  0.80063901  0.34890968  0.55858535    -0.04900
C352        C  0.91996924  0.28479525  0.57174551    -0.30300
N353        N  0.93661100  0.26222497  0.53242747     0.16200
C354        C  0.91501878  0.28228023  0.49184761    -0.30300
H355        H  0.92380444  0.27256556  0.45532983     0.18200
C356        C  0.91863777  0.45084495  0.55925049    -0.29300
N357        N  0.95321371  0.45794975  0.52117219     0.14900
C358        C  0.93461709  0.42432662  0.48931422    -0.29200
C359        C  0.74971139  0.34854787  0.57667149    -0.29500
N360        N  0.71598100  0.35350230  0.53946102     0.15500
H361        H  0.73833799  0.34927723  0.61440863     0.18100
C362        C  0.74402072  0.35346274  0.49700701    -0.29500
H363        H  0.72729888  0.35854199  0.46139076     0.18100
H364        H  0.96106514  0.40726772  0.46614549     0.18100
H365        H  0.93226996  0.27672368  0.60866993     0.18200
H366        H  0.92334835  0.47139797  0.59206847     0.18100
C367        C  0.57283452  0.87689189  0.41269745     0.32000
C368        C  0.57836308  0.86969774  0.64158933     0.32000
C369        C  0.55715634  0.92404633  0.38021377    -0.04200
C370        C  0.62647815  0.87343204  0.38929174    -0.05000
C371        C  0.53993873  0.82902433  0.38998717    -0.04900
C372        C  0.55139488  0.91454228  0.32966867    -0.04200
C373        C  0.63080507  0.87099771  0.33802829    -0.05000
C374        C  0.54378467  0.82464756  0.33851878    -0.04900
C375        C  0.49923706  0.92284670  0.65574711    -0.30300
N376        N  0.48424948  0.95504124  0.35398622     0.16200
C377        C  0.51989049  0.95629002  0.39008310    -0.30300
H378        H  0.51768117  0.97683152  0.42271170     0.18200
C379        C  0.68343106  0.86245457  0.66319045    -0.29300
N380        N  0.70801185  0.86040924  0.37383499     0.14900
C381        C  0.67404490  0.86712875  0.40933999    -0.29200
C382        C  0.51631936  0.77686794  0.66289662    -0.29500
N383        N  0.49634390  0.75271705  0.37199125     0.15500
H384        H  0.51293185  0.75962246  0.62813565     0.18100
C385        C  0.50978248  0.78411433  0.40869489    -0.29500
H386        H  0.50187588  0.77308848  0.44679487     0.18100
H387        H  0.68383730  0.86705830  0.44749584     0.18100
H388        H  0.47086990  0.90114807  0.63328327     0.18200
H389        H  0.70157744  0.85773555  0.62843165     0.18100
C390        C  0.58110584  0.87324876  0.57878951     0.32000
C391        C  0.57370931  0.87786903  0.47387905     0.32000
C392        C  0.52970452  0.88811041  0.55421363    -0.04200
C393        C  0.61974468  0.91602271  0.54898633    -0.05000
C394        C  0.59168639  0.82423898  0.55138145    -0.04900
C395        C  0.52143123  0.88123166  0.50326130    -0.04200
C396        C  0.61397621  0.91935696  0.49719198    -0.05000
C397        C  0.59088907  0.82916775  0.49985289    -0.04900
C398        C  0.48227174  0.91172911  0.49000043    -0.30300
N399        N  0.47814067  0.94634552  0.52391986     0.16200
C400        C  0.51208514  0.93627124  0.55829637    -0.34700
H401        H  0.53083545  0.96672433  0.57981283     0.18200
C402        C  0.65053306  0.95925693  0.47879029    -0.29300
N403        N  0.67894816  0.97981480  0.51589964     0.14900
C404        C  0.66082246  0.95411768  0.55862669    -0.29200
C405        C  0.60385393  0.78458655  0.48252773    -0.29500
N406        N  0.60726527  0.74977689  0.51987052     0.15500
H407        H  0.60509805  0.77554456  0.44477881     0.18100
C408        C  0.60041193  0.77280118  0.56235525    -0.29500
H409        H  0.59893000  0.75285215  0.59805355     0.18100
H410        H  0.67857114  0.96029838  0.59372441     0.18100
H411        H  0.46151443  0.91127793  0.45607454     0.18200
H412        H  0.65909344  0.96957278  0.44065346     0.18100
O413        O  0.04785241  0.09087002  0.61835929    -0.78900
O414        O  0.86351317  0.94189033  0.39549128    -0.63600
O415        O  0.98425372  0.02928960  0.34519127    -1.10200
C416        C  0.06082674  0.87290306  0.33951046     1.08000
O417        O  0.89676800  0.86709529  0.41656970    -0.76800
O418        O  0.99519829  0.93214189  0.43677288    -0.64400
Ni419      Ni  0.97174565  0.08230602  0.63192346     1.34900
C420        C  0.02560802  0.97234799  0.42259603     0.86700
O421        O  0.89061239  0.04711391  0.38930714    -0.77400
O422        O  0.89886604  0.08380182  0.64829785    -0.87600
C423        C  0.85845613  0.89317466  0.40556051     0.86300
O424        O  0.95091681  0.02373311  0.59633941    -0.65800
O425        O  0.04472065  0.87298183  0.38294126    -0.85100
C426        C  0.91836468  0.98443892  0.60931165     0.87100
C427        C  0.88251515  0.08376167  0.69176754     1.08700
H428        H  0.93815612  0.90605881  0.66535022     0.40500
O429        O  0.95893807  0.92750398  0.35303640    -1.07800
O430        O  0.05425713  0.97215124  0.38539805    -0.64400
Ni431      Ni  0.01931256  0.97039566  0.32501024     1.26300
O432        O  0.88930997  0.98514853  0.64603140    -0.64700
O433        O  0.05199918  0.90925979  0.30818636    -0.77000
C434        C  0.08534832  0.06347479  0.29488547     0.86500
O435        O  0.07952454  0.01431753  0.30137392    -0.64100
Ni436      Ni  0.97230945  0.87488366  0.40031431     1.27400
Ni437      Ni  0.92368326  0.98627418  0.37282732     1.26100
H438        H  0.00556738  0.05134538  0.36561902     0.41000
O439        O  0.11375453  0.99827694  0.50955645    -0.78900
O440        O  0.87036603  0.02935904  0.49170287    -0.63600
O441        O  0.01062296  0.00414423  0.53464219    -1.10200
C442        C  0.95149870  0.82644758  0.50902635     1.08000
O443        O  0.82464333  0.95058439  0.51151847    -0.76800
O444        O  0.87826442  0.90749751  0.57974111    -0.64400
Ni445      Ni  0.07245159  0.05368745  0.51636648     1.34900
C446        C  0.92091297  0.93497824  0.58774803     0.86700
O447        O  0.95002452  0.08959055  0.52714694    -0.77400
O448        O  0.03729282  0.11488282  0.52145503    -0.87600
C449        C  0.82734324  0.99916293  0.50089111     0.86300
O450        O  0.05900153  0.05283697  0.45024876    -0.65800
O451        O  0.90491161  0.83560830  0.51827227    -0.85100
C452        C  0.01887555  0.02174306  0.44263956     0.87100
C453        C  0.98991109  0.12406337  0.52698706     1.08700
H454        H  0.92237865  0.95201780  0.46140229     0.40500
O455        O  0.92982947  0.94671998  0.49513295    -1.07800
O456        O  0.96500827  0.91775200  0.57931118    -0.64400
Ni457      Ni  0.99979498  0.93355194  0.51762512     1.26300
O458        O  0.97308767  0.03499508  0.45082058    -0.64700
O459        O  0.99056635  0.86156032  0.50328885    -0.77000
C460        C  0.11180764  0.95137553  0.52643872     0.86500
O461        O  0.06927895  0.92271471  0.54053433    -0.64100
Ni462      Ni  0.86848748  0.89657569  0.51413722     1.27400
Ni463      Ni  0.94032535  0.01761163  0.51297747     1.26100
H464        H  0.01924397  0.99853467  0.56816560     0.41000
C465        C  0.09872426  0.59495462  0.62197451     0.32000
C466        C  0.09021480  0.59587747  0.39343967     0.32000
C467        C  0.10415493  0.64886417  0.31213099    -0.04200
C468        C  0.04853252  0.56486771  0.31577402    -0.05000
C469        C  0.14018447  0.56833487  0.31911717    -0.04900
C470        C  0.10108731  0.64936228  0.36366961    -0.04200
C471        C  0.03999203  0.57264601  0.36588701    -0.05000
C472        C  0.13465796  0.56720404  0.37088866    -0.04900
C473        C  0.10373790  0.70129104  0.37407426    -0.30300
N474        N  0.10789822  0.73165553  0.33183073     0.16200
C475        C  0.10941974  0.70043683  0.29423214    -0.30300
H476        H  0.11167607  0.71407068  0.58931472     0.18200
C477        C  0.99921905  0.53494449  0.38173730    -0.29300
N478        N  0.99351470  0.49724612  0.34968396     0.14900
C479        C  0.02985184  0.51164499  0.64771886    -0.29200
C480        C  0.17296220  0.53878895  0.38998029    -0.29500
N481        N  0.20226792  0.52429390  0.35320596     0.15500
H482        H  0.17993205  0.53019543  0.42815657     0.18100
C483        C  0.18251598  0.54124297  0.31000781    -0.29500
H484        H  0.19870611  0.53476246  0.60795210     0.18100
H485        H  0.04519246  0.48393339  0.62549035     0.18100
H486        H  0.10014428  0.71595042  0.40966706     0.18200
H487        H  0.97799811  0.53359148  0.41583204     0.18100
C488        C  0.08882242  0.59446680  0.45494705     0.32000
C489        C  0.09552170  0.59741536  0.55960425     0.32000
C490        C  0.05416638  0.63041415  0.48067641    -0.04200
C491        C  0.07510457  0.54063380  0.48652460    -0.05000
C492        C  0.14206322  0.61437749  0.47702109    -0.04900
C493        C  0.05825722  0.63265348  0.53237871    -0.04200
C494        C  0.07148727  0.54622236  0.53803940    -0.05000
C495        C  0.14709575  0.61346267  0.52827418    -0.04900
C496        C  0.02442941  0.66671507  0.54583890    -0.30300
N497        N  0.00237484  0.68655752  0.50537989     0.16200
C498        C  0.01923662  0.66446552  0.46575402    -0.30300
H499        H  0.00859294  0.67427235  0.42867440     0.18200
C500        C  0.02058721  0.52293147  0.54909528    -0.29300
N501        N  0.00333992  0.48858928  0.51759994     0.14900
C502        C  0.03659242  0.49839532  0.47864927    -0.29200
C503        C  0.20070988  0.62751825  0.53595422    -0.29500
N504        N  0.22609258  0.63846262  0.49201608     0.15500
H505        H  0.22028206  0.62642255  0.57065800     0.18100
C506        C  0.19027347  0.63256696  0.45659032    -0.29500
H507        H  0.20010835  0.63635561  0.41820857     0.18100
H508        H  0.03219561  0.47756980  0.44600066     0.18100
H509        H  0.01742016  0.67788095  0.58223348     0.18200
H510        H  0.99319178  0.53848234  0.57248641     0.18100
C511        C  0.36351475  0.07939209  0.39625932     0.32000
C512        C  0.36704484  0.07180721  0.62528397     0.32000
C513        C  0.37730494  0.02833203  0.37531508    -0.04200
C514        C  0.31284870  0.08906315  0.36622334    -0.05000
C515        C  0.40631940  0.11702046  0.36600403    -0.04900
C516        C  0.37189849  0.02023258  0.65743448    -0.04200
C517        C  0.31715582  0.08735119  0.64817607    -0.05000
C518        C  0.40891503  0.11087545  0.64814362    -0.04900
C519        C  0.40376373  0.98181048  0.64837867    -0.30300
N520        N  0.43640592  0.97694575  0.35276517     0.16200
C521        C  0.42507926  0.01048912  0.38410066    -0.30300
H522        H  0.45630180  0.03154938  0.40399239     0.18200
C523        C  0.27016242  0.09607698  0.62832322    -0.29300
N524        N  0.23555941  0.10091960  0.33086378     0.14900
C525        C  0.26027043  0.09633035  0.37467506    -0.29200
C526        C  0.45020986  0.14463784  0.62904073    -0.29500
N527        N  0.47194364  0.17290883  0.33189383     0.15500
H528        H  0.46013123  0.15227840  0.59080781     0.18100
C529        C  0.44651135  0.15617421  0.37474019    -0.29500
H530        H  0.45417361  0.17390127  0.40894696     0.18100
H531        H  0.24105290  0.09590775  0.40982653     0.18100
H532        H  0.40672499  0.96343813  0.61460318     0.18200
H533        H  0.26002199  0.09528770  0.59027789     0.18100
C534        C  0.36728344  0.07367439  0.56423324     0.32000
C535        C  0.36236921  0.07766765  0.45917237     0.32000
C536        C  0.41748496  0.06191808  0.53642088    -0.04200
C537        C  0.32235101  0.03809339  0.54027057    -0.05000
C538        C  0.36054257  0.12619766  0.53743588    -0.04900
C539        C  0.41010889  0.05545893  0.48536266    -0.04200
C540        C  0.31859599  0.04103324  0.48851628    -0.05000
C541        C  0.36031667  0.12980505  0.48562560    -0.04900
C542        C  0.42324271  0.00501473  0.48319463    -0.30300
N543        N  0.45525824  0.99306961  0.51879558     0.16200
C544        C  0.45279669  0.02852436  0.55214858    -0.30300
H545        H  0.47083846  0.02714980  0.58742461     0.18200
C546        C  0.27863175  0.00255536  0.47760297    -0.29300
N547        N  0.25886185  0.97722467  0.51980754     0.14900
C548        C  0.28501508  0.99845506  0.55781279    -0.29200
C549        C  0.36362710  0.18321549  0.47296092    -0.29500
N550        N  0.36476703  0.20983182  0.51443964     0.15500
H551        H  0.36725135  0.20136717  0.43648103     0.18100
C552        C  0.36192721  0.17541597  0.55324544    -0.29500
H553        H  0.36401504  0.18609660  0.59058860     0.18100
H554        H  0.27617159  0.98695726  0.59569831     0.18100
H555        H  0.40205151  0.97469313  0.46315166     0.18200
H556        H  0.26429280  0.99419095  0.44166853     0.18100
O557        O  0.60410956  0.50803413  0.61093691    -0.78900
O558        O  0.37993907  0.48884519  0.38284129    -0.63600
O559        O  0.52606732  0.49378517  0.34331646    -1.10200
C560        C  0.48547563  0.31969263  0.31300962     1.08000
O561        O  0.34257596  0.41469726  0.35355046    -0.76800
O562        O  0.43360952  0.39318019  0.40515115    -0.64400
Ni563      Ni  0.55787241  0.55192156  0.63904433     1.34900
C564        C  0.48397429  0.40326532  0.40709967     0.86700
O565        O  0.46789786  0.55785677  0.39380246    -0.77400
O566        O  0.51803049  0.60083537  0.66611814    -0.87600
C567        C  0.33976173  0.45973387  0.36854701     0.86300
O568        O  0.49976657  0.53147440  0.60062950    -0.65800
O569        O  0.44781085  0.32241696  0.34245424    -0.85100
C570        C  0.45125751  0.53333861  0.60815689     0.87100
C571        C  0.48699963  0.60029066  0.36952178     1.08700
H572        H  0.42931684  0.43787599  0.62376861     0.40500
O573        O  0.44304350  0.43118999  0.32130652    -1.07800
O574        O  0.51573862  0.39307880  0.37539372    -0.64400
Ni575      Ni  0.51724519  0.42754597  0.31404588     1.26300
O576        O  0.43131081  0.53324976  0.64843056    -0.64700
O577        O  0.50886317  0.35920780  0.28877156    -0.77000
C578        C  0.62182232  0.47038119  0.30231075     0.86500
O579        O  0.59189990  0.42852472  0.31428357    -0.64100
Ni580      Ni  0.39887656  0.37173505  0.34846583     1.27400
Ni581      Ni  0.45334671  0.49182978  0.36380927     1.26100
H582        H  0.55464212  0.49139859  0.36518472     0.41000
O583        O  0.35851822  0.39243520  0.51972188    -0.78900
O584        O  0.49399492  0.61451857  0.47762529    -0.63600
O585        O  0.42176104  0.47658644  0.48732227    -1.10200
C586        C  0.58619309  0.42782203  0.53585513     1.08000
O587        O  0.56164681  0.58608599  0.44283067    -0.76800
O588        O  0.52298287  0.48071411  0.43467884    -0.64400
Ni589      Ni  0.35089185  0.46522795  0.51146302     1.34900
C590        C  0.50594248  0.43301012  0.44297174     0.86700
O591        O  0.39468708  0.57591595  0.45004344    -0.77400
O592        O  0.33388748  0.53439658  0.50155865    -0.87600
C593        C  0.54306531  0.61922671  0.46820474     0.86300
O594        O  0.38470883  0.48569708  0.56882300    -0.65800
O595        O  0.59764636  0.45628273  0.49729667    -0.85100
C596        C  0.41702113  0.52761492  0.57057512     0.87100
C597        C  0.35050615  0.57265469  0.47258806     1.08700
H598        H  0.53199350  0.54216367  0.53154489     0.40500
O599        O  0.51569728  0.51860193  0.50944565    -1.07800
O600        O  0.49908136  0.41285773  0.48382458    -0.64400
Ni601      Ni  0.47852204  0.45198629  0.53092553     1.26300
O602        O  0.42695503  0.56162311  0.53675216    -0.64700
O603        O  0.54292265  0.42975683  0.56051068    -0.77000
C604        C  0.39425648  0.36539026  0.53418772     0.86500
O605        O  0.43875324  0.38521924  0.55016438    -0.64100
Ni606      Ni  0.57540234  0.51946114  0.47013942     1.27400
Ni607      Ni  0.45554583  0.54688112  0.47809327     1.26100
H608        H  0.42001590  0.46151908  0.45655017     0.41000
C609        C  0.37486020  0.26410438  0.51953156    -0.11300
C610        C  0.38424533  0.30972846  0.52843596    -0.12900
C611        C  0.50254288  0.26973819  0.31163265    -0.11300
C612        C  0.49614772  0.22365714  0.32136752    -0.12900
C613        C  0.31828688  0.61406237  0.47118705    -0.11300
C614        C  0.27873888  0.63214734  0.48181279    -0.12900
C615        C  0.28909685  0.48005464  0.36620210    -0.11300
C616        C  0.24839709  0.49954144  0.35992948    -0.12900
C617        C  0.16255163  0.93361346  0.52891390    -0.11300
C618        C  0.20951999  0.94658832  0.52483188    -0.12900
C619        C  0.96138555  0.77348107  0.50557101    -0.11300
C620        C  0.97720797  0.73165347  0.50429744    -0.12900
C621        C  0.18142477  0.09811318  0.32063898    -0.11300
C622        C  0.13708334  0.08884551  0.30532003    -0.12900
C623        C  0.08674309  0.82848039  0.32740638    -0.11300
C624        C  0.09958757  0.78476139  0.32746347    -0.12900
C625        C  0.57674713  0.65888113  0.49098364    -0.11300
C626        C  0.59540758  0.69735382  0.51023171    -0.12900
C627        C  0.72977035  0.00730636  0.50853408    -0.11300
C628        C  0.77680503  0.01776453  0.50143228    -0.12900
C629        C  0.47540858  0.65139785  0.38073651    -0.11300
C630        C  0.48042895  0.69863203  0.37871528    -0.12900
C631        C  0.80642748  0.86701496  0.39857817    -0.11300
C632        C  0.76163322  0.85946148  0.38423714    -0.12900
C633        C  0.97986055  0.17661726  0.53243275    -0.11300
C634        C  0.96305949  0.21794914  0.53379293    -0.12900
C635        C  0.66554850  0.37110307  0.54487847    -0.11300
C636        C  0.62510342  0.39199669  0.54765691    -0.12900
C637        C  0.85663137  0.12796594  0.70447050    -0.11300
C638        C  0.84277415  0.17108041  0.70628656    -0.12900
C639        C  0.67539403  0.47487704  0.31840964    -0.11300
C640        C  0.71788800  0.46831474  0.33481516    -0.12900
C641        C  0.85880858  0.35875301  0.97634785     0.32000
C642        C  0.85014671  0.35962568  0.74772272     0.32000
C643        C  0.84005794  0.30629202  0.00552230    -0.04200
C644        C  0.91143175  0.37516900  0.00442282    -0.05000
C645        C  0.82160398  0.39422938  0.99842248    -0.04900
C646        C  0.83723089  0.30633300  0.72394056    -0.04200
C647        C  0.90337277  0.38290238  0.72162147    -0.05000
C648        C  0.81435848  0.39323268  0.71661070    -0.04900
C649        C  0.83193904  0.25445913  0.74128906    -0.30300
N650        N  0.83267303  0.22369025  0.03626054     0.16200
C651        C  0.83658829  0.25457476  0.99453698    -0.30300
H652        H  0.84047003  0.24022441  0.95891015     0.18200
C653        C  0.92672085  0.43427019  0.72373507    -0.29300
N654        N  0.96256693  0.44778611  0.68852012     0.14900
C655        C  0.95436696  0.41126153  0.98929741    -0.29200
C656        C  0.77861596  0.42831825  0.72403907    -0.29500
N657        N  0.76591953  0.44986381  0.01318741     0.15500
H658        H  0.76230118  0.43696070  0.75843740     0.18100
C659        C  0.79395012  0.43159949  0.97813067    -0.29500
H660        H  0.79054781  0.44176820  0.93969704     0.18100
H661        H  0.97527506  0.41249197  0.95506414     0.18100
H662        H  0.83118220  0.24008340  0.77895097     0.18200
H663        H  0.91215938  0.46296582  0.74531028     0.18100
C664        C  0.85137793  0.35753664  0.81018929     0.32000
C665        C  0.85689920  0.35996148  0.91493265     0.32000
C666        C  0.88172565  0.31684606  0.83833431    -0.04200
C667        C  0.88224193  0.40581006  0.83216610    -0.05000
C668        C  0.79775676  0.35032657  0.84038486    -0.04900
C669        C  0.88541042  0.31883115  0.88988973    -0.04200
C670        C  0.87837450  0.41175313  0.88340177    -0.05000
C671        C  0.80117414  0.34891537  0.89201061    -0.04900
C672        C  0.92049685  0.28494665  0.90501507    -0.30300
N673        N  0.93708028  0.26236418  0.86568039     0.16200
C674        C  0.91548357  0.28245773  0.82511259    -0.30300
H675        H  0.92418530  0.27269623  0.78858954     0.18200
C676        C  0.91911097  0.45100683  0.89254694    -0.29300
N677        N  0.95365534  0.45812620  0.85444635     0.14900
C678        C  0.93499032  0.42454867  0.82257193    -0.29200
C679        C  0.75030211  0.34844816  0.91023844    -0.29500
N680        N  0.71649082  0.35358002  0.87313956     0.15500
H681        H  0.73902207  0.34904670  0.94801240     0.18100
C682        C  0.74442427  0.35366962  0.83060299    -0.29500
H683        H  0.72763298  0.35895643  0.79504472     0.18100
H684        H  0.96141371  0.40745807  0.79940547     0.18100
H685        H  0.93274806  0.27679973  0.94194299     0.18200
H686        H  0.92383555  0.47158671  0.92534561     0.18100
C687        C  0.57335960  0.87688353  0.74604053     0.32000
C688        C  0.57849483  0.86983166  0.97499112     0.32000
C689        C  0.55744416  0.92389515  0.71350628    -0.04200
C690        C  0.62696604  0.87354822  0.72250905    -0.05000
C691        C  0.54056365  0.82889539  0.72346727    -0.04900
C692        C  0.55154772  0.91426724  0.66299463    -0.04200
C693        C  0.63115672  0.87097700  0.67122625    -0.05000
C694        C  0.54424258  0.82443523  0.67199054    -0.04900
C695        C  0.49947336  0.92314131  0.98908987    -0.30300
N696        N  0.48441362  0.95472539  0.68740704     0.16200
C697        C  0.52017166  0.95611971  0.72341175    -0.30300
H698        H  0.51800240  0.97668461  0.75603371     0.18200
C699        C  0.68349721  0.86257558  0.99680589    -0.29300
N700        N  0.70843160  0.86036078  0.70696753     0.14900
C701        C  0.67456126  0.86726793  0.74249253    -0.29200
C702        C  0.51632198  0.77699346  0.99609357    -0.29500
N703        N  0.49704734  0.75253366  0.70566695     0.15500
H704        H  0.51315259  0.75973353  0.96132860     0.18100
C705        C  0.51057071  0.78397401  0.74231193    -0.29500
H706        H  0.50281624  0.77298523  0.78044050     0.18100
H707        H  0.68441970  0.86730769  0.78063146     0.18100
H708        H  0.47106223  0.90139555  0.96670233     0.18200
H709        H  0.70180440  0.85815554  0.96205212     0.18100
C710        C  0.58144289  0.87344656  0.91219317     0.32000
C711        C  0.57423311  0.87792545  0.80724786     0.32000
C712        C  0.53000086  0.88800974  0.88752567    -0.04200
C713        C  0.61997885  0.91634073  0.88240359    -0.05000
C714        C  0.59235408  0.82453471  0.88487487    -0.04900
C715        C  0.52185539  0.88111237  0.83656045    -0.04200
C716        C  0.61431210  0.91958244  0.83058434    -0.05000
C717        C  0.59161342  0.82934847  0.83333712    -0.04900
C718        C  0.48254590  0.91144887  0.82326148    -0.30300
N719        N  0.47817019  0.94597838  0.85721757     0.16200
C720        C  0.51215339  0.93604160  0.89158915    -0.34700
H721        H  0.53086967  0.96659048  0.91301216     0.18200
C722        C  0.65091612  0.95944676  0.81219253    -0.29300
N723        N  0.67924614  0.98008442  0.84932052     0.14900
C724        C  0.66103123  0.95446171  0.89205620    -0.29200
C725        C  0.60487377  0.78480027  0.81617260    -0.29500
N726        N  0.60849430  0.75016542  0.85364239     0.15500
H727        H  0.60611346  0.77562091  0.77845709     0.18100
C728        C  0.60141799  0.77326078  0.89603073    -0.29500
H729        H  0.59992755  0.75343185  0.93178618     0.18100
H730        H  0.67874838  0.96065449  0.92716589     0.18100
H731        H  0.46183822  0.91096042  0.78931005     0.18200
H732        H  0.65959455  0.96965596  0.77405769     0.18100
O733        O  0.04824972  0.09073379  0.95143785    -0.78900
O734        O  0.86383832  0.94197695  0.72895103    -0.63600
O735        O  0.98457002  0.02953412  0.67862823    -1.10200
C736        C  0.06096993  0.87309537  0.67245986     1.08000
O737        O  0.89718500  0.86718979  0.74988407    -0.76800
O738        O  0.99562645  0.93229190  0.77000484    -0.64400
Ni739      Ni  0.97216946  0.08233792  0.96499449     1.34900
C740        C  0.02601433  0.97251205  0.75582937     0.86700
O741        O  0.89101400  0.04726578  0.72301003    -0.77400
O742        O  0.89928584  0.08403137  0.98127100    -0.87600
C743        C  0.85883620  0.89322425  0.73886742     0.86300
O744        O  0.95128314  0.02370757  0.92952772    -0.65800
O745        O  0.04508572  0.87322310  0.71595466    -0.85100
C746        C  0.91864745  0.98448733  0.94246917     0.87100
C747        C  0.88277529  0.08395907  0.02469559     1.08700
H748        H  0.93837150  0.90619232  0.99855003     0.40500
O749        O  0.95919885  0.92774012  0.68635185    -1.07800
O750        O  0.05459743  0.97235245  0.71857448    -0.64400
Ni751      Ni  0.01951823  0.97065359  0.65824387     1.26300
O752        O  0.88956890  0.98528456  0.97914937    -0.64700
O753        O  0.05209256  0.90951014  0.64122306    -0.77000
C754        C  0.08558977  0.06372921  0.62816706     0.86500
O755        O  0.07970608  0.01456052  0.63451810    -0.64100
Ni756      Ni  0.97270613  0.87505946  0.73351047     1.27400
Ni757      Ni  0.92401428  0.98646521  0.70633726     1.26100
H758        H  0.00598882  0.05155809  0.69900464     0.41000
O759        O  0.11407685  0.99830054  0.84298794    -0.78900
O760        O  0.87069917  0.02951504  0.82506181    -0.63600
O761        O  0.01094989  0.00414355  0.86792253    -1.10200
C762        C  0.95176731  0.82651466  0.84227476     1.08000
O763        O  0.82492629  0.95068031  0.84452909    -0.76800
O764        O  0.87843038  0.90762908  0.91284510    -0.64400
Ni765      Ni  0.07278549  0.05371858  0.84976301     1.34900
C766        C  0.92112207  0.93500684  0.92091569     0.86700
O767        O  0.95036920  0.08964601  0.86052398    -0.77400
O768        O  0.03762907  0.11492454  0.85480199    -0.87600
C769        C  0.82765633  0.99930222  0.83412513     0.86300
O770        O  0.05945467  0.05292127  0.78362896    -0.65800
O771        O  0.90519117  0.83569579  0.85153319    -0.85100
C772        C  0.01930799  0.02187931  0.77596341     0.87100
C773        C  0.99025337  0.12411645  0.86033426     1.08700
H774        H  0.92277477  0.95220148  0.79457606     0.40500
O775        O  0.93014719  0.94683545  0.82831406    -1.07800
O776        O  0.96518912  0.91771761  0.91245683    -0.64400
Ni777      Ni  0.00006663  0.93358964  0.85080304     1.26300
O778        O  0.97352406  0.03516072  0.78415799    -0.64700
O779        O  0.99080457  0.86163024  0.83637628    -0.77000
C780        C  0.11206262  0.95132303  0.85967614     0.86500
O781        O  0.06951445  0.92265233  0.87370118    -0.64100
Ni782      Ni  0.86877422  0.89667148  0.84723840     1.27400
Ni783      Ni  0.94066724  0.01768830  0.84627615     1.26100
H784        H  0.01959163  0.99842816  0.90143508     0.41000
C785        C  0.09892138  0.59506296  0.95542496     0.32000
C786        C  0.09070740  0.59599221  0.72673495     0.32000
C787        C  0.10417686  0.64879487  0.64526265    -0.04200
C788        C  0.04914530  0.56445421  0.64916774    -0.05000
C789        C  0.14086507  0.56859370  0.65239028    -0.04900
C790        C  0.10115366  0.64944382  0.69680011    -0.04200
C791        C  0.04060240  0.57231139  0.69923474    -0.05000
C792        C  0.13540938  0.56760519  0.70417457    -0.04900
C793        C  0.10365041  0.70142622  0.70703179    -0.30300
N794        N  0.10770164  0.73166932  0.66470754     0.16200
C795        C  0.10932940  0.70032983  0.62721279    -0.30300
H796        H  0.11222713  0.71425036  0.92284224     0.18200
C797        C  0.99981690  0.53460465  0.71506045    -0.29300
N798        N  0.99414995  0.49686256  0.68302466     0.14900
C799        C  0.02969395  0.51203550  0.98113309    -0.29200
C800        C  0.17387460  0.53938168  0.72328878    -0.29500
N801        N  0.20326300  0.52490140  0.68655986     0.15500
H802        H  0.18081136  0.53078975  0.76146967     0.18100
C803        C  0.18336729  0.54164779  0.64333412    -0.29500
H804        H  0.19853854  0.53432010  0.94162137     0.18100
H805        H  0.04509008  0.48425659  0.95902524     0.18100
H806        H  0.10013001  0.71620859  0.74257955     0.18200
H807        H  0.97846324  0.53334268  0.74907649     0.18100
C808        C  0.08933849  0.59464824  0.78830798     0.32000
C809        C  0.09592868  0.59752261  0.89302685     0.32000
C810        C  0.05466375  0.63058873  0.81407337    -0.04200
C811        C  0.07560978  0.54079234  0.81988440    -0.05000
C812        C  0.14258105  0.61456066  0.81046459    -0.04900
C813        C  0.05872680  0.63278410  0.86578763    -0.04200
C814        C  0.07193544  0.54635373  0.87140419    -0.05000
C815        C  0.14756451  0.61356026  0.86174352    -0.04900
C816        C  0.02490499  0.66682094  0.87930189    -0.30300
N817        N  0.00283550  0.68668734  0.83886671     0.16200
C818        C  0.01970758  0.66464458  0.79920990    -0.30300
H819        H  0.00901286  0.67446149  0.76214915     0.18200
C820        C  0.02103257  0.52306522  0.88240109    -0.29300
N821        N  0.00381725  0.48871666  0.85090639     0.14900
C822        C  0.03712660  0.49851975  0.81199563    -0.29200
C823        C  0.20121160  0.62744665  0.86948594    -0.29500
N824        N  0.22666039  0.63844877  0.82557425     0.15500
H825        H  0.22073751  0.62619757  0.90420934     0.18100
C826        C  0.19084621  0.63274261  0.79011412    -0.29500
H827        H  0.20070594  0.63668243  0.75173994     0.18100
H828        H  0.03286755  0.47758160  0.77940854     0.18100
H829        H  0.01791421  0.67794594  0.91571619     0.18200
H830        H  0.99357981  0.53871257  0.90565451     0.18100
C831        C  0.36382838  0.07925221  0.72954117     0.32000
C832        C  0.36726522  0.07205867  0.95855250     0.32000
C833        C  0.37752701  0.02812501  0.70868358    -0.04200
C834        C  0.31315806  0.08897802  0.69955202    -0.05000
C835        C  0.40668727  0.11677810  0.69922094    -0.04900
C836        C  0.37207781  0.02049563  0.99076506    -0.04200
C837        C  0.31738584  0.08765908  0.98141248    -0.05000
C838        C  0.40911628  0.11117022  0.98143120    -0.04900
C839        C  0.40393096  0.98204489  0.98175974    -0.30300
N840        N  0.43658396  0.97666106  0.68618942     0.16200
C841        C  0.42529746  0.01026195  0.71748412    -0.30300
H842        H  0.45651043  0.03126781  0.73743172     0.18200
C843        C  0.27045011  0.09651736  0.96153323    -0.29300
N844        N  0.23586319  0.10096087  0.66423609     0.14900
C845        C  0.26061325  0.09637797  0.70803109    -0.29200
C846        C  0.45045236  0.14492002  0.96237075    -0.29500
N847        N  0.47223926  0.17264675  0.66492735     0.15500
H848        H  0.46047847  0.15250020  0.92415286     0.18100
C849        C  0.44689866  0.15596239  0.70782993    -0.29500
H850        H  0.45461596  0.17377896  0.74198397     0.18100
H851        H  0.24144062  0.09604116  0.74319376     0.18100
H852        H  0.40673428  0.96347957  0.94806981     0.18200
H853        H  0.26032997  0.09575318  0.92348247     0.18100
C854        C  0.36749912  0.07381584  0.89747289     0.32000
C855        C  0.36264960  0.07759444  0.79241158     0.32000
C856        C  0.41758542  0.06166375  0.86969307    -0.04200
C857        C  0.32236853  0.03841271  0.87353026    -0.05000
C858        C  0.36109011  0.12637856  0.87053990    -0.04900
C859        C  0.41017696  0.05510518  0.81866588    -0.04200
C860        C  0.31867755  0.04125642  0.82176473    -0.05000
C861        C  0.36092115  0.12984322  0.81873076    -0.04900
C862        C  0.42310500  0.00456918  0.81654670    -0.30300
N863        N  0.45511540  0.99261206  0.85214509     0.16200
C864        C  0.45278066  0.02816102  0.88544360    -0.30300
H865        H  0.47098764  0.02691448  0.92064830     0.18200
C866        C  0.27878749  0.00271093  0.81084173    -0.29300
N867        N  0.25896673  0.97743668  0.85304552     0.14900
C868        C  0.28501621  0.99876760  0.89106381    -0.29200
C869        C  0.36457072  0.18323403  0.80589244    -0.29500
N870        N  0.36587086  0.21001833  0.84726889     0.15500
H871        H  0.36827340  0.20124966  0.76936354     0.18100
C872        C  0.36274739  0.17570843  0.88617905    -0.29500
H873        H  0.36480770  0.18651961  0.92348082     0.18100
H874        H  0.27618520  0.98723796  0.92894516     0.18100
H875        H  0.40194043  0.97428499  0.79643676     0.18200
H876        H  0.26461016  0.99418563  0.77489103     0.18100
O877        O  0.60426188  0.50861022  0.94485450    -0.78900
O878        O  0.38087535  0.48929956  0.71651142    -0.63600
O879        O  0.52671458  0.49382853  0.67626219    -1.10200
C880        C  0.48588630  0.31963145  0.64673397     1.08000
O881        O  0.34341113  0.41454984  0.68852250    -0.76800
O882        O  0.43552207  0.39375403  0.73930511    -0.64400
Ni883      Ni  0.55727294  0.55212306  0.97246310     1.34900
C884        C  0.48593784  0.40390587  0.74068761     0.86700
O885        O  0.46913874  0.55784042  0.72729846    -0.77400
O886        O  0.51690746  0.60088056  0.99910200    -0.87600
C887        C  0.34062862  0.45993376  0.70273095     0.86300
O888        O  0.49935144  0.53061593  0.93416813    -0.65800
O889        O  0.44888200  0.32249987  0.67685713    -0.85100
C890        C  0.45089232  0.53301355  0.94139418     0.87100
C891        C  0.48801689  0.60026439  0.70293361     1.08700
H892        H  0.42920578  0.43783684  0.95692677     0.40500
O893        O  0.44347972  0.43109443  0.65513820    -1.07800
O894        O  0.51720161  0.39351030  0.70865029    -0.64400
Ni895      Ni  0.51763885  0.42751984  0.64716777     1.26300
O896        O  0.43073208  0.53308361  0.98157046    -0.64700
O897        O  0.50890920  0.35907338  0.62214494    -0.77000
C898        C  0.62216189  0.47041315  0.63480724     0.86500
O899        O  0.59231356  0.42849505  0.64668612    -0.64100
Ni900      Ni  0.39987956  0.37172516  0.68318769     1.27400
Ni901      Ni  0.45419888  0.49193597  0.69729859     1.26100
H902        H  0.55549251  0.49145503  0.69782709     0.41000
O903        O  0.35997531  0.39263807  0.85143122    -0.78900
O904        O  0.49501230  0.61542723  0.81141280    -0.63600
O905        O  0.42322181  0.47730670  0.82017398    -1.10200
C906        C  0.58736387  0.42874088  0.87017420     1.08000
O907        O  0.56249439  0.58673632  0.77663979    -0.76800
O908        O  0.52637673  0.48108742  0.76810876    -0.64400
Ni909      Ni  0.35200443  0.46535381  0.84342490     1.34900
C910        C  0.50842663  0.43359580  0.77653397     0.86700
O911        O  0.39588145  0.57684846  0.78326091    -0.77400
O912        O  0.33462655  0.53438729  0.83379384    -0.87600
C913        C  0.54408928  0.61997699  0.80200532     0.86300
O914        O  0.38493619  0.48557436  0.90126653    -0.65800
O915        O  0.59966162  0.45800910  0.83227675    -0.85100
C916        C  0.41699027  0.52759883  0.90358568     0.87100
C917        C  0.35142141  0.57310921  0.80544617     1.08700
H918        H  0.53253620  0.54303385  0.86546049     0.40500
O919        O  0.51670543  0.51942886  0.84318194    -1.07800
O920        O  0.50092465  0.41366754  0.81740071    -0.64400
Ni921      Ni  0.47954391  0.45263512  0.86424606     1.26300
O922        O  0.42732658  0.56189051  0.87003901    -0.64700
O923        O  0.54364886  0.43026034  0.89429350    -0.77000
C924        C  0.39557041  0.36571785  0.86648015     0.86500
O925        O  0.43972372  0.38571142  0.88304832    -0.64100
Ni926      Ni  0.57705817  0.52071261  0.80456832     1.27400
Ni927      Ni  0.45668849  0.54773315  0.81149411     1.26100
H928        H  0.42221467  0.46250174  0.78928565     0.41000
C929        C  0.37624787  0.26432053  0.85215676    -0.11300
C930        C  0.38574507  0.31000353  0.86086056    -0.12900
C931        C  0.50260376  0.26957572  0.64482734    -0.11300
C932        C  0.49625043  0.22345252  0.65432349    -0.12900
C933        C  0.31902487  0.61441914  0.80449343    -0.11300
C934        C  0.27936770  0.63226042  0.81533467    -0.12900
C935        C  0.28996252  0.48037400  0.69997214    -0.11300
C936        C  0.24935266  0.50002457  0.69340860    -0.12900
C937        C  0.16277785  0.93350618  0.86206298    -0.11300
C938        C  0.20972647  0.94660758  0.85800812    -0.12900
C939        C  0.96169426  0.77353601  0.83901289    -0.11300
C940        C  0.97759319  0.73173636  0.83782050    -0.12900
C941        C  0.18171530  0.09821338  0.65402684    -0.11300
C942        C  0.13736132  0.08901086  0.63868845    -0.12900
C943        C  0.08665953  0.82856231  0.66018866    -0.11300
C944        C  0.09941238  0.78479521  0.66021679    -0.12900
C945        C  0.57796728  0.65923703  0.82505444    -0.11300
C946        C  0.59673830  0.69769422  0.84422641    -0.12900
C947        C  0.73009859  0.00753022  0.84198567    -0.11300
C948        C  0.77713231  0.01794097  0.83482238    -0.12900
C949        C  0.47642695  0.65126842  0.71433160    -0.11300
C950        C  0.48128462  0.69846510  0.71243520    -0.12900
C951        C  0.80685263  0.86698531  0.73171813    -0.11300
C952        C  0.76206993  0.85938213  0.71732821    -0.12900
C953        C  0.98021054  0.17667934  0.86573063    -0.11300
C954        C  0.96345047  0.21803570  0.86704413    -0.12900
C955        C  0.66618261  0.37136699  0.87879763    -0.11300
C956        C  0.62590353  0.39248434  0.88181220    -0.12900
C957        C  0.85662661  0.12803100  0.03729025    -0.11300
C958        C  0.84266002  0.17109187  0.03915503    -0.12900
C959        C  0.67560413  0.47511166  0.65134761    -0.11300
C960        C  0.71797307  0.46852556  0.66806402    -0.12900
loop_ 
_geom_bond_atom_site_label_1 
_geom_bond_atom_site_label_2 
_geom_bond_distance 
_geom_bond_site_symmetry_2 
_ccdc_geom_bond_type 
C1            C3   1.557       .  S
C1            C5   1.549       .  S
C1            C4   1.577       .  S
C1           C25   1.692       .  S
C2            C6   1.564       .  S
C2            C8   1.563       .  S
C2            C7   1.567       .  S
C2           C24   1.720       .  S
C3           C11   1.385       .  A
C3          C326   1.424       .  A
C4           C15   1.391       .  A
C4          C327   1.440       .  A
C5           C19   1.363       .  A
C5          C328   1.426       .  A
C6            C9   1.389       .  A
C6          C643   1.424       .  A
C7           C13   1.394       .  A
C7          C644   1.440       .  A
C8           C16   1.389       .  A
C8          C645   1.426   1_554  A
C9           H22   1.080       .  S
C9          N650   1.357       .  A
N10          C11   1.356       .  A
N10         C329   1.357       .  A
N10         C318   1.416       .  S
C11          H12   1.079       .  S
C13          H23   1.080       .  S
C13          N14   1.330       .  A
N14         C655   1.352   1_554  A
N14         N158   1.416       .  S
C15          H21   1.078       .  S
C15         N334   1.352       .  A
C16          H18   1.080       .  S
C16         N657   1.363       .  A
N17          C19   1.343       .  A
N17         C336   1.363       .  A
N17         C640   1.398       .  S
C19          H20   1.082       .  S
C24          C26   1.557       .  S
C24          C28   1.583       .  S
C24          C27   1.549       .  S
C25          C29   1.556       .  S
C25          C31   1.559       .  S
C25          C30   1.588       .  S
C26          C34   1.378       .  A
C26          C29   1.428       .  A
C27          C38   1.390       .  A
C27          C30   1.433       .  A
C28          C42   1.401       .  A
C28          C31   1.425       .  A
C29          C32   1.379       .  A
C30          C36   1.394       .  A
C31          C39   1.387       .  A
C32          H45   1.082       .  S
C32          N33   1.353       .  A
N33          C34   1.353       .  A
N33         C314   1.401       .  S
C34          H35   1.081       .  S
C36          H46   1.077       .  S
C36          N37   1.356       .  A
N37          C38   1.323       .  A
N37         N181   1.417   1_655  S
C38          H44   1.079       .  S
C39          H41   1.080       .  S
C39          N40   1.352       .  A
N40          C42   1.369       .  A
N40         C315   1.428       .  S
C42          H43   1.079       .  S
C47          C49   1.565       .  S
C47          C51   1.573       .  S
C47          C50   1.524       .  S
C47          C71   1.689       .  S
C48         C372   1.558       .  S
C48         C374   1.565       .  S
C48         C373   1.575       .  S
C48          C70   1.727       .  S
C49          C57   1.379       .  A
C49          C52   1.434   1_554  A
C50          C61   1.360       .  A
C50          C53   1.423       .  A
C51          C65   1.381       .  A
C51          C54   1.434       .  A
C52         C688   1.559       .  S
C52         C695   1.393       .  A
C53         C688   1.576   1_554  S
C53         C699   1.397   1_554  A
C54         C688   1.565   1_554  S
C54         C702   1.382   1_554  A
C55         C372   1.393       .  A
C55          H68   1.081       .  S
C55         N376   1.323       .  A
N56          C57   1.350       .  A
N56         C695   1.323   1_554  A
N56         N200   1.409       .  S
C57          H58   1.078       .  S
C59         C373   1.397       .  A
C59          H69   1.082       .  S
C59         N380   1.369       .  A
N60          C61   1.337       .  A
N60         C699   1.369   1_554  A
N60         C312   1.401       .  S
C61          H67   1.082       .  S
C62         C374   1.382       .  A
C62          H64   1.081       .  S
C62         N383   1.362       .  A
N63          C65   1.355       .  A
N63         C702   1.361   1_554  A
N63         C310   1.409       .  S
C65          H66   1.082       .  S
C70          C72   1.558       .  S
C70          C74   1.567       .  S
C70          C73   1.574       .  S
C71          C75   1.571       .  S
C71          C77   1.526       .  S
C71          C76   1.561       .  S
C72          C80   1.389       .  A
C72          C75   1.439       .  A
C73          C84   1.385       .  A
C73          C76   1.434       .  A
C74          C88   1.394       .  A
C74          C77   1.418       .  A
C75          C78   1.387       .  A
C76          C82   1.372       .  A
C77          C85   1.355       .  A
C78          H91   1.077       .  S
C78          N79   1.348       .  A
N79          C80   1.323       .  A
N79         N223   1.409       .  S
C80          H81   1.081       .  S
C82          H92   1.083       .  S
C82          N83   1.354       .  A
N83          C84   1.365       .  A
N83         C307   1.406   1_565  S
C84          H90   1.082       .  S
C85          H87   1.082       .  S
C85          N86   1.337       .  A
N86          C88   1.366       .  A
N86         C306   1.396       .  S
C88          H89   1.081       .  S
O93         Ni99   1.956   1_455  S
O93         C434   1.282       .  A
O94        Ni117   1.878       .  S
O94         C103   1.266       .  A
O95        Ni117   1.913   1_545  S
O95        Ni111   1.971   1_644  S
O95        Ni739   1.880   1_554  S
O95         H118   0.950   1_655  S
C96         O113   1.280   1_554  A
C96         O105   1.264       .  A
C96         C303   1.454   1_554  S
O97        Ni116   1.958       .  S
O97         C103   1.284       .  A
O98        Ni116   1.877       .  S
O98         C100   1.258   1_655  A
Ni99        O102   1.916       .  S
Ni99        O104   1.880       .  S
Ni99        O415   1.880       .  S
C100        O110   1.257       .  A
C100        C132   1.455   1_565  S
O101       Ni117   1.955   1_545  S
O101        C747   1.279       .  A
O102        C107   1.266       .  A
C103        C311   1.431       .  S
O104        C106   1.262   1_545  A
O105       Ni116   1.913   1_455  S
C106        O112   1.254       .  A
C106        C126   1.455       .  S
C107        O421   1.279       .  A
C107        C317   1.453       .  S
H108        O429   0.952       .  S
O109       Ni117   1.967       .  S
O109       Ni111   1.911   1_654  S
O109       Ni116   1.891       .  S
O109        H748   0.952   1_554  S
O110       Ni111   1.893   1_554  S
Ni111       O115   1.880   1_565  S
Ni111       O113   1.960       .  S
O112       Ni437   1.888       .  S
C114        O115   1.265       .  A
C114        O733   1.282       .  A
C114        C302   1.437       .  S
Ni117       O752   1.887   1_554  S
O119       Ni125   1.902   1_565  S
O119        C140   1.269       .  A
O120       Ni143   1.936       .  S
O120        C129   1.279   1_545  A
O121       Ni125   1.946       .  S
O121       Ni143   1.959   1_455  S
O121       Ni137   1.904   1_545  S
O121        H144   0.957   1_545  S
C122        O139   1.264       .  A
C122        O131   1.268       .  A
C122        C299   1.435       .  S
O123       Ni142   1.897       .  S
O123        C129   1.268       .  A
O124       Ni142   1.861       .  S
O124        C126   1.251       .  A
Ni125       O128   1.930       .  S
Ni125       O130   1.857       .  S
C126        O136   1.286       .  A
O127       Ni143   1.915       .  S
O127        C133   1.266       .  A
O128        C133   1.271   1_455  A
C129        C308   1.433   1_565  S
O130        C132   1.247       .  A
O131       Ni142   1.929       .  S
C132        O138   1.281   1_455  A
C133        C313   1.434       .  S
H134        O135   0.955       .  S
O135       Ni143   1.917   1_565  S
O135       Ni137   1.955   1_655  S
O135       Ni142   1.951       .  S
O136       Ni137   1.911   1_655  S
Ni137       O141   1.933       .  S
Ni137       O139   1.916   1_455  S
O138       Ni143   1.906       .  S
C140        O141   1.279       .  A
C140        C297   1.428       .  S
C145        C467   1.562       .  S
C145        C469   1.564       .  S
C145        C468   1.566       .  S
C145        C169   1.719       .  S
C146        C150   1.560       .  S
C146        C152   1.576       .  S
C146        C151   1.566       .  S
C146        C168   1.693       .  S
C147        C785   1.563       .  S
C147        C155   1.386       .  A
C147        C150   1.423   1_556  A
C148        C785   1.566       .  S
C148        C151   1.427   1_556  A
C148        C799   1.398       .  A
C149        C785   1.565       .  S
C149        C163   1.390       .  A
C149        C152   1.431   1_556  A
C150        C153   1.387       .  A
C151        C157   1.384   1_455  A
C152        C160   1.383       .  A
C153        H166   1.081       .  S
C153        N154   1.361   1_554  A
N154        C155   1.357       .  A
N154        C304   1.417       .  S
C155        H796   1.081       .  S
H156        C475   1.081       .  S
C157        H167   1.078       .  S
C157        N158   1.352       .  A
N158        C799   1.334   1_654  A
C159        C468   1.398       .  A
C159        H165   1.080       .  S
C159        N478   1.334   1_455  A
C160        H162   1.082       .  S
C160        N161   1.355       .  A
N161        C163   1.365   1_554  A
N161        C296   1.418       .  S
C163        H804   1.082       .  S
H164        C483   1.082       .  S
C168        C170   1.560       .  S
C168        C172   1.533       .  S
C168        C171   1.597       .  S
C169        C173   1.563       .  S
C169        C175   1.568       .  S
C169        C174   1.544       .  S
C170        C178   1.378       .  A
C170        C173   1.433       .  A
C171        C182   1.404       .  A
C171        C174   1.439       .  A
C172        C186   1.365       .  A
C172        C175   1.418       .  A
C173        C176   1.375       .  A
C174        C180   1.384       .  A
C175        C183   1.391       .  A
C176        H189   1.081       .  S
C176        N177   1.354       .  A
N177        C178   1.356       .  A
N177        C300   1.401   1_455  S
C178        H179   1.082       .  S
C180        H190   1.079   1_455  S
C180        N181   1.319       .  A
N181        C182   1.356       .  A
C182        H188   1.077       .  S
C183        H185   1.082       .  S
C183        N184   1.368       .  A
N184        C186   1.343       .  A
N184        C294   1.403       .  S
C186        H187   1.082       .  S
C191        C193   1.555       .  S
C191        C195   1.569       .  S
C191        C194   1.576       .  S
C191        C215   1.731       .  S
C192        C196   1.576       .  S
C192        C198   1.541       .  S
C192        C197   1.527       .  S
C192        C214   1.681       .  S
C193        C201   1.375       .  A
C193        C836   1.445   1_554  A
C194        C205   1.397       .  A
C194        C837   1.423   1_554  A
C195        C209   1.381       .  A
C195        C838   1.427   1_554  A
C196        C199   1.395   1_545  A
C196        C513   1.445       .  A
C197        C203   1.359       .  A
C197        C514   1.423       .  A
C198        C206   1.362       .  A
C198        C515   1.427       .  A
C199        H212   1.078       .  S
C199        N520   1.351       .  A
N200        C201   1.318   1_565  A
N200        C839   1.351   1_554  A
C201        H202   1.079       .  S
C203        H213   1.082       .  S
C203        N524   1.340       .  A
N204        C205   1.370   1_556  A
N204        C843   1.340       .  A
N204        C301   1.404       .  S
C205        H211   1.082       .  S
C206        H208   1.083       .  S
C206        N527   1.346       .  A
N207        C209   1.364   1_556  A
N207        C846   1.346       .  A
N207        C292   1.393       .  S
C209        H210   1.082       .  S
C214        C216   1.561       .  S
C214        C218   1.539       .  S
C214        C217   1.555       .  S
C215        C219   1.570       .  S
C215        C221   1.580       .  S
C215        C220   1.559       .  S
C216        C224   1.380       .  A
C216        C219   1.438       .  A
C217        C228   1.372   1_545  A
C217        C220   1.428       .  A
C218        C232   1.370       .  A
C218        C221   1.426       .  A
C219        C222   1.394       .  A
C220        C226   1.381       .  A
C221        C229   1.398       .  A
C222        H235   1.079   1_545  S
C222        N223   1.326   1_545  A
N223        C224   1.346   1_565  A
C224        H225   1.078       .  S
C226        H236   1.082   1_545  S
C226        N227   1.362   1_545  A
N227        C228   1.353       .  A
N227        C298   1.402       .  S
C228        H234   1.083       .  S
C229        H231   1.082       .  S
C229        N230   1.369       .  A
N230        C232   1.346       .  A
N230        C289   1.414       .  S
C232        H233   1.082       .  S
O237       Ni243   1.929       .  S
O237        C578   1.278       .  A
O238       Ni261   1.932       .  S
O238        C247   1.272       .  A
O239       Ni261   1.929       .  S
O239       Ni255   1.928   1_554  S
O239       Ni883   1.856   1_554  S
O239        H262   0.953       .  S
C240        O257   1.268       .  A
C240        O249   1.266   1_556  A
C240        C291   1.420       .  S
O241       Ni260   1.936       .  S
O241        C247   1.272       .  A
O242       Ni260   1.880       .  S
O242        C244   1.280       .  A
Ni243       O246   1.905       .  S
Ni243       O248   1.868       .  S
Ni243       O559   1.857       .  S
C244        O254   1.250       .  A
C244        C270   1.371       .  S
O245       Ni261   1.939       .  S
O245        C251   1.290       .  A
O246        C571   1.266       .  A
C247        C295   1.457       .  S
O248        C250   1.261       .  A
O249       Ni260   1.910       .  S
C250        O256   1.218       .  A
C250        C276   1.361       .  S
C251        O886   1.266   1_554  A
C251        C309   1.443       .  S
H252        O573   0.953       .  S
O253       Ni261   2.008   1_556  S
O253       Ni255   1.918       .  S
O253       Ni260   1.901   1_556  S
O253        H892   0.954       .  S
O254       Ni255   1.860   1_554  S
Ni255       O259   1.902       .  S
Ni255       O257   1.930       .  S
O256       Ni581   1.814       .  S
C258        O259   1.270       .  A
C258        O877   1.278       .  A
C258        C319   1.432       .  S
Ni261       O896   1.815   1_554  S
O263       Ni269   1.921       .  S
O263        C284   1.269       .  A
O264       Ni287   1.897       .  S
O264        C273   1.266       .  A
O265       Ni269   1.905       .  S
O265       Ni287   1.916       .  S
O265       Ni281   2.025       .  S
O265        H288   0.954       .  S
C266        O283   1.301       .  A
C266        O275   1.266       .  A
C266        C316   1.467       .  S
O267       Ni286   1.913       .  S
O267        C273   1.274       .  A
O268       Ni286   1.881       .  S
O268        C270   1.264       .  A
Ni269       O272   1.900       .  S
Ni269       O274   1.878       .  S
C270        O280   1.214       .  A
O271       Ni287   1.953       .  S
O271        C277   1.275       .  A
O272        C277   1.262       .  A
C273        C305   1.431       .  S
O274        C276   1.282       .  A
O275       Ni286   1.909       .  S
C276        O282   1.245       .  A
C277        C293   1.431       .  S
H278        O279   0.947       .  S
O279       Ni287   1.965       .  S
O279       Ni281   1.922       .  S
O279       Ni286   1.862       .  S
O280       Ni281   1.810       .  S
Ni281       O285   1.936       .  S
Ni281       O283   1.973       .  S
O282       Ni287   1.851       .  S
C284        O285   1.278       .  A
C284        C290   1.452       .  S
C289        C290   1.217       .  T
C291        C292   1.198       .  T
C293        C294   1.207       .  T
C295        C296   1.219       .  T
C297        C298   1.206       .  T
C299        C300   1.206       .  T
C301        C302   1.210       .  T
C303        C304   1.219       .  T
C305        C306   1.204       .  T
C307        C308   1.208       .  T
C309        C310   1.212       .  T
C311        C312   1.207       .  T
C313        C314   1.206       .  T
C315        C316   1.228       .  T
C317        C318   1.218       .  T
C319        C320   1.204   1_556  T
C320        N657   1.398       .  S
C321        C323   1.557       .  S
C321        C325   1.549       .  S
C321        C324   1.577       .  S
C321        C345   1.693       .  S
C322        C326   1.564       .  S
C322        C328   1.563       .  S
C322        C327   1.567       .  S
C322        C344   1.719       .  S
C323        C331   1.385       .  A
C323        C646   1.424       .  A
C324        C335   1.392       .  A
C324        C647   1.440       .  A
C325        C339   1.363       .  A
C325        C648   1.426       .  A
C326        C329   1.389       .  A
C327        C333   1.393       .  A
C328        C336   1.389       .  A
C329        H342   1.080       .  S
N330        C649   1.357       .  A
N330        C331   1.356       .  A
N330        C638   1.416       .  S
C331        H332   1.079       .  S
C333        H343   1.080       .  S
C333        N334   1.330       .  A
N334        N478   1.416       .  S
C335        H341   1.078       .  S
C335        N654   1.352       .  A
C336        H338   1.080       .  S
N337        C656   1.363       .  A
N337        C339   1.343       .  A
N337        C960   1.398       .  S
C339        H340   1.082       .  S
C344        C346   1.556       .  S
C344        C348   1.582       .  S
C344        C347   1.549       .  S
C345        C349   1.557       .  S
C345        C351   1.559       .  S
C345        C350   1.588       .  S
C346        C354   1.378       .  A
C346        C349   1.428       .  A
C347        C358   1.389       .  A
C347        C350   1.434       .  A
C348        C362   1.400       .  A
C348        C351   1.425       .  A
C349        C352   1.380       .  A
C350        C356   1.395       .  A
C351        C359   1.387       .  A
C352        H365   1.082       .  S
C352        N353   1.354       .  A
N353        C354   1.353       .  A
N353        C634   1.401       .  S
C354        H355   1.081       .  S
C356        H366   1.077       .  S
C356        N357   1.356       .  A
N357        C358   1.323       .  A
N357        N501   1.417   1_655  S
C358        H364   1.079       .  S
C359        H361   1.080       .  S
C359        N360   1.352       .  A
N360        C362   1.368       .  A
N360        C635   1.428       .  S
C362        H363   1.079       .  S
C367        C369   1.564       .  S
C367        C371   1.572       .  S
C367        C370   1.525       .  S
C367        C391   1.688       .  S
C368        C692   1.559       .  S
C368        C694   1.565       .  S
C368        C693   1.576       .  S
C368        C390   1.728       .  S
C369        C377   1.379       .  A
C369        C372   1.435       .  A
C370        C381   1.360       .  A
C370        C373   1.422       .  A
C371        C385   1.381       .  A
C371        C374   1.434       .  A
C375        C692   1.393       .  A
C375        H388   1.081       .  S
C375        N696   1.323       .  A
N376        C377   1.350       .  A
N376        N520   1.409       .  S
C377        H378   1.078       .  S
C379        C693   1.397       .  A
C379        H389   1.082       .  S
C379        N700   1.369       .  A
N380        C381   1.337       .  A
N380        C632   1.402       .  S
C381        H387   1.082       .  S
C382        C694   1.381       .  A
C382        H384   1.081       .  S
C382        N703   1.361       .  A
N383        C385   1.355       .  A
N383        C630   1.410       .  S
C385        H386   1.082       .  S
C390        C392   1.559       .  S
C390        C394   1.568       .  S
C390        C393   1.574       .  S
C391        C395   1.571       .  S
C391        C397   1.526       .  S
C391        C396   1.561       .  S
C392        C400   1.390       .  A
C392        C395   1.440       .  A
C393        C404   1.384       .  A
C393        C396   1.434       .  A
C394        C408   1.394       .  A
C394        C397   1.418       .  A
C395        C398   1.387       .  A
C396        C402   1.372       .  A
C397        C405   1.355       .  A
C398        H411   1.077       .  S
C398        N399   1.348       .  A
N399        C400   1.323       .  A
N399        N543   1.409       .  S
C400        H401   1.081       .  S
C402        H412   1.083       .  S
C402        N403   1.354       .  A
N403        C404   1.365       .  A
N403        C627   1.405   1_565  S
C404        H410   1.082       .  S
C405        H407   1.082       .  S
C405        N406   1.337       .  A
N406        C408   1.367       .  A
N406        C626   1.396       .  S
C408        H409   1.081       .  S
O413       Ni419   1.957   1_455  S
O413        C754   1.282       .  A
O414       Ni437   1.877       .  S
O414        C423   1.266       .  A
O415       Ni437   1.912   1_545  S
O415       Ni431   1.970   1_645  S
O415        H438   0.950   1_655  S
C416        O433   1.280       .  A
C416        O425   1.264       .  A
C416        C623   1.453       .  S
O417       Ni436   1.958       .  S
O417        C423   1.284       .  A
O418       Ni436   1.877       .  S
O418        C420   1.258   1_655  A
Ni419       O422   1.916       .  S
Ni419       O424   1.880       .  S
Ni419       O735   1.880       .  S
C420        O430   1.256       .  A
C420        C452   1.454   1_565  S
O421       Ni437   1.955   1_545  S
O422        C427   1.266       .  A
C423        C631   1.431       .  S
O424        C426   1.262   1_545  A
O425       Ni436   1.913   1_455  S
C426        O432   1.254       .  A
C426        C446   1.454       .  S
C427        O741   1.279       .  A
C427        C637   1.452       .  S
H428        O749   0.952       .  S
O429       Ni437   1.967       .  S
O429       Ni431   1.911   1_655  S
O429       Ni436   1.891       .  S
O430       Ni431   1.892       .  S
Ni431       O435   1.880   1_565  S
Ni431       O433   1.960       .  S
O432       Ni757   1.887       .  S
C434        O435   1.265       .  A
C434        C622   1.437       .  S
O439       Ni445   1.903   1_565  S
O439        C460   1.269       .  A
O440       Ni463   1.935       .  S
O440        C449   1.279   1_545  A
O441       Ni445   1.947       .  S
O441       Ni463   1.958   1_455  S
O441       Ni457   1.903   1_445  S
O441        H464   0.957   1_545  S
C442        O459   1.264       .  A
C442        O451   1.268       .  A
C442        C619   1.435       .  S
O443       Ni462   1.897       .  S
O443        C449   1.268       .  A
O444       Ni462   1.860       .  S
O444        C446   1.251       .  A
Ni445       O448   1.930       .  S
Ni445       O450   1.857       .  S
C446        O456   1.286       .  A
O447       Ni463   1.915       .  S
O447        C453   1.266       .  A
O448        C453   1.271   1_455  A
C449        C628   1.432   1_565  S
O450        C452   1.247       .  A
O451       Ni462   1.929       .  S
C452        O458   1.281   1_455  A
C453        C633   1.434       .  S
H454        O455   0.955       .  S
O455       Ni463   1.918   1_565  S
O455       Ni457   1.955       .  S
O455       Ni462   1.950       .  S
O456       Ni457   1.911       .  S
Ni457       O461   1.932   1_655  S
Ni457       O459   1.917       .  S
O458       Ni463   1.905       .  S
C460        O461   1.279       .  A
C460        C617   1.428       .  S
C465        C787   1.562       .  S
C465        C789   1.565       .  S
C465        C788   1.565       .  S
C465        C489   1.719       .  S
C466        C470   1.559       .  S
C466        C472   1.576       .  S
C466        C471   1.566       .  S
C466        C488   1.693       .  S
C467        C475   1.386       .  A
C467        C470   1.423       .  A
C468        C471   1.427       .  A
C469        C483   1.390       .  A
C469        C472   1.431       .  A
C470        C473   1.387       .  A
C471        C477   1.383   1_455  A
C472        C480   1.383       .  A
C473        H486   1.081       .  S
C473        N474   1.360       .  A
N474        C475   1.357       .  A
N474        C624   1.417       .  S
H476        C795   1.081       .  S
C477        H487   1.078       .  S
C477        N478   1.352       .  A
C479        C788   1.398       .  A
C479        H485   1.080       .  S
C479        N798   1.334   1_455  A
C480        H482   1.082       .  S
C480        N481   1.355       .  A
N481        C483   1.364       .  A
N481        C616   1.417       .  S
H484        C803   1.082       .  S
C488        C490   1.560       .  S
C488        C492   1.533       .  S
C488        C491   1.597       .  S
C489        C493   1.563       .  S
C489        C495   1.567       .  S
C489        C494   1.544       .  S
C490        C498   1.378       .  A
C490        C493   1.433       .  A
C491        C502   1.403       .  A
C491        C494   1.440       .  A
C492        C506   1.365       .  A
C492        C495   1.418       .  A
C493        C496   1.375       .  A
C494        C500   1.385       .  A
C495        C503   1.390       .  A
C496        H509   1.081       .  S
C496        N497   1.354       .  A
N497        C498   1.356       .  A
N497        C620   1.401   1_455  S
C498        H499   1.082       .  S
C500        H510   1.079   1_455  S
C500        N501   1.319       .  A
N501        C502   1.356       .  A
C502        H508   1.077       .  S
C503        H505   1.082       .  S
C503        N504   1.367       .  A
N504        C506   1.343       .  A
N504        C614   1.402       .  S
C506        H507   1.082       .  S
C511        C513   1.555       .  S
C511        C515   1.568       .  S
C511        C514   1.576       .  S
C511        C535   1.732       .  S
C512        C516   1.576       .  S
C512        C518   1.541       .  S
C512        C517   1.527       .  S
C512        C534   1.680       .  S
C513        C521   1.374       .  A
C514        C525   1.398       .  A
C515        C529   1.381       .  A
C516        C833   1.445       .  A
C516        C519   1.395   1_545  A
C517        C834   1.423       .  A
C517        C523   1.359       .  A
C518        C835   1.427       .  A
C518        C526   1.363       .  A
C519        H532   1.078       .  S
C519        N840   1.351       .  A
N520        C521   1.318   1_565  A
C521        H522   1.079       .  S
C523        H533   1.082       .  S
C523        N844   1.340       .  A
N524        C525   1.370       .  A
N524        C621   1.404       .  S
C525        H531   1.082       .  S
C526        H528   1.083       .  S
C526        N847   1.346       .  A
N527        C529   1.364       .  A
N527        C612   1.393       .  S
C529        H530   1.082       .  S
C534        C536   1.561       .  S
C534        C538   1.538       .  S
C534        C537   1.554       .  S
C535        C539   1.571       .  S
C535        C541   1.581       .  S
C535        C540   1.559       .  S
C536        C544   1.379       .  A
C536        C539   1.438       .  A
C537        C548   1.372   1_545  A
C537        C540   1.428       .  A
C538        C552   1.369       .  A
C538        C541   1.425       .  A
C539        C542   1.395       .  A
C540        C546   1.381       .  A
C541        C549   1.398       .  A
C542        H555   1.079   1_545  S
C542        N543   1.327   1_545  A
N543        C544   1.346   1_565  A
C544        H545   1.078       .  S
C546        H556   1.082   1_545  S
C546        N547   1.362   1_545  A
N547        C548   1.353       .  A
N547        C618   1.402       .  S
C548        H554   1.083       .  S
C549        H551   1.082       .  S
C549        N550   1.370       .  A
N550        C552   1.345       .  A
N550        C609   1.413       .  S
C552        H553   1.082       .  S
O557       Ni563   1.929       .  S
O557        C898   1.278       .  A
O558       Ni581   1.932       .  S
O558        C567   1.273       .  A
O559       Ni581   1.929       .  S
O559       Ni575   1.930       .  S
O559        H582   0.954       .  S
C560        O577   1.268       .  A
C560        O569   1.266       .  A
C560        C611   1.420       .  S
O561       Ni580   1.934       .  S
O561        C567   1.272       .  A
O562       Ni580   1.879       .  S
O562        C564   1.280       .  A
Ni563       O566   1.905       .  S
Ni563       O568   1.867       .  S
Ni563       O879   1.857       .  S
C564        O574   1.251       .  A
C564        C590   1.370       .  S
O565       Ni581   1.941       .  S
O565        C571   1.290       .  A
O566        C891   1.266       .  A
C567        C615   1.456       .  S
O568        C570   1.261       .  A
O569       Ni580   1.909       .  S
C570        O576   1.218       .  A
C570        C596   1.361       .  S
C571        C629   1.444       .  S
H572        O893   0.954       .  S
O573       Ni581   2.009       .  S
O573       Ni575   1.916       .  S
O573       Ni580   1.901       .  S
O574       Ni575   1.861       .  S
Ni575       O579   1.901       .  S
Ni575       O577   1.930       .  S
O576       Ni901   1.814       .  S
C578        O579   1.270       .  A
C578        C639   1.431       .  S
O583       Ni589   1.921       .  S
O583        C604   1.269       .  A
O584       Ni607   1.897       .  S
O584        C593   1.266       .  A
O585       Ni589   1.904       .  S
O585       Ni607   1.916       .  S
O585       Ni601   2.025       .  S
O585        H608   0.954       .  S
C586        O603   1.301       .  A
C586        O595   1.267       .  A
C586        C636   1.467       .  S
O587       Ni606   1.915       .  S
O587        C593   1.275       .  A
O588       Ni606   1.883       .  S
O588        C590   1.264       .  A
Ni589       O592   1.901       .  S
Ni589       O594   1.878       .  S
C590        O600   1.214       .  A
O591       Ni607   1.951       .  S
O591        C597   1.275       .  A
O592        C597   1.262       .  A
C593        C625   1.432       .  S
O594        C596   1.281       .  A
O595       Ni606   1.911       .  S
C596        O602   1.245       .  A
C597        C613   1.430       .  S
H598        O599   0.949       .  S
O599       Ni607   1.964       .  S
O599       Ni601   1.920       .  S
O599       Ni606   1.861       .  S
O600       Ni601   1.810       .  S
Ni601       O605   1.934       .  S
Ni601       O603   1.972       .  S
O602       Ni607   1.851       .  S
C604        O605   1.277       .  A
C604        C610   1.451       .  S
C609        C610   1.217       .  T
C611        C612   1.198       .  T
C613        C614   1.207       .  T
C615        C616   1.219       .  T
C617        C618   1.205       .  T
C619        C620   1.206       .  T
C621        C622   1.210       .  T
C623        C624   1.218       .  T
C625        C626   1.204       .  T
C627        C628   1.208       .  T
C629        C630   1.212       .  T
C631        C632   1.207       .  T
C633        C634   1.205       .  T
C635        C636   1.228       .  T
C637        C638   1.218       .  T
C639        C640   1.204       .  T
C641        C643   1.556   1_556  S
C641        C645   1.549       .  S
C641        C644   1.577   1_556  S
C641        C665   1.692       .  S
C642        C646   1.563       .  S
C642        C648   1.563       .  S
C642        C647   1.566       .  S
C642        C664   1.720       .  S
C643        C651   1.384   1_554  A
C644        C655   1.391   1_554  A
C645        C659   1.363       .  A
C646        C649   1.389       .  A
C647        C653   1.393       .  A
C648        C656   1.389       .  A
C649        H662   1.080       .  S
N650        C651   1.356   1_554  A
N650        C958   1.416       .  S
C651        H652   1.080       .  S
C653        H663   1.080       .  S
C653        N654   1.330       .  A
N654        N798   1.416       .  S
C655        H661   1.078       .  S
C656        H658   1.081       .  S
N657        C659   1.343   1_554  A
C659        H660   1.082       .  S
C664        C666   1.557       .  S
C664        C668   1.582       .  S
C664        C667   1.549       .  S
C665        C669   1.556       .  S
C665        C671   1.559       .  S
C665        C670   1.588       .  S
C666        C674   1.378       .  A
C666        C669   1.428       .  A
C667        C678   1.389       .  A
C667        C670   1.434       .  A
C668        C682   1.400       .  A
C668        C671   1.424       .  A
C669        C672   1.379       .  A
C670        C676   1.395       .  A
C671        C679   1.387       .  A
C672        H685   1.082       .  S
C672        N673   1.354       .  A
N673        C674   1.353       .  A
N673        C954   1.401       .  S
C674        H675   1.081       .  S
C676        H686   1.077       .  S
C676        N677   1.356       .  A
N677        C678   1.323       .  A
N677        N821   1.417   1_655  S
C678        H684   1.079       .  S
C679        H681   1.080       .  S
C679        N680   1.352       .  A
N680        C682   1.368       .  A
N680        C955   1.428       .  S
C682        H683   1.079       .  S
C687        C689   1.564       .  S
C687        C691   1.572       .  S
C687        C690   1.525       .  S
C687        C711   1.689       .  S
C688        C710   1.728       .  S
C689        C697   1.379       .  A
C689        C692   1.435       .  A
C690        C701   1.360       .  A
C690        C693   1.423       .  A
C691        C705   1.381       .  A
C691        C694   1.434       .  A
C695        H708   1.080       .  S
N696        C697   1.350       .  A
N696        N840   1.409       .  S
C697        H698   1.078       .  S
C699        H709   1.082       .  S
N700        C701   1.337       .  A
N700        C952   1.402       .  S
C701        H707   1.082       .  S
C702        H704   1.081       .  S
N703        C705   1.355       .  A
N703        C950   1.409       .  S
C705        H706   1.082       .  S
C710        C712   1.558       .  S
C710        C714   1.567       .  S
C710        C713   1.574       .  S
C711        C715   1.571       .  S
C711        C717   1.527       .  S
C711        C716   1.561       .  S
C712        C720   1.389       .  A
C712        C715   1.440       .  A
C713        C724   1.384       .  A
C713        C716   1.435       .  A
C714        C728   1.393       .  A
C714        C717   1.419       .  A
C715        C718   1.387       .  A
C716        C722   1.372       .  A
C717        C725   1.355       .  A
C718        H731   1.077       .  S
C718        N719   1.348       .  A
N719        C720   1.323       .  A
N719        N863   1.409       .  S
C720        H721   1.081       .  S
C722        H732   1.083       .  S
C722        N723   1.354       .  A
N723        C724   1.365       .  A
N723        C947   1.405   1_565  S
C724        H730   1.082       .  S
C725        H727   1.082       .  S
C725        N726   1.337       .  A
N726        C728   1.366       .  A
N726        C946   1.396       .  S
C728        H729   1.081       .  S
O733       Ni739   1.956   1_455  S
O734       Ni757   1.878       .  S
O734        C743   1.266       .  A
O735       Ni757   1.913   1_545  S
O735       Ni751   1.970   1_645  S
O735        H758   0.950   1_655  S
C736        O753   1.280       .  A
C736        O745   1.264       .  A
C736        C943   1.453       .  S
O737       Ni756   1.958       .  S
O737        C743   1.284       .  A
O738       Ni756   1.877       .  S
O738        C740   1.258   1_655  A
Ni739       O742   1.916       .  S
Ni739       O744   1.879       .  S
C740        O750   1.257       .  A
C740        C772   1.455   1_565  S
O741       Ni757   1.955   1_545  S
O742        C747   1.266   1_556  A
C743        C951   1.432       .  S
O744        C746   1.262   1_545  A
O745       Ni756   1.913   1_455  S
C746        O752   1.253       .  A
C746        C766   1.454       .  S
C747        C957   1.452       .  S
O749       Ni757   1.967       .  S
O749       Ni751   1.911   1_655  S
O749       Ni756   1.891       .  S
O750       Ni751   1.892       .  S
Ni751       O755   1.880   1_565  S
Ni751       O753   1.960       .  S
C754        O755   1.265       .  A
C754        C942   1.437       .  S
O759       Ni765   1.902   1_565  S
O759        C780   1.269       .  A
O760       Ni783   1.936       .  S
O760        C769   1.279   1_545  A
O761       Ni765   1.946       .  S
O761       Ni783   1.958   1_455  S
O761       Ni777   1.903   1_545  S
O761        H784   0.958   1_545  S
C762        O779   1.264       .  A
C762        O771   1.268       .  A
C762        C939   1.435       .  S
O763       Ni782   1.897       .  S
O763        C769   1.268       .  A
O764       Ni782   1.860       .  S
O764        C766   1.251       .  A
Ni765       O768   1.930       .  S
Ni765       O770   1.857       .  S
C766        O776   1.287       .  A
O767       Ni783   1.915       .  S
O767        C773   1.266       .  A
O768        C773   1.271   1_455  A
C769        C948   1.432   1_565  S
O770        C772   1.247       .  A
O771       Ni782   1.929       .  S
C772        O778   1.281   1_455  A
C773        C953   1.434       .  S
H774        O775   0.955       .  S
O775       Ni783   1.918   1_565  S
O775       Ni777   1.955   1_655  S
O775       Ni782   1.951       .  S
O776       Ni777   1.911   1_655  S
Ni777       O781   1.932       .  S
Ni777       O779   1.916   1_455  S
O778       Ni783   1.906       .  S
C780        O781   1.279       .  A
C780        C937   1.428       .  S
C785        C809   1.719       .  S
C786        C790   1.560       .  S
C786        C792   1.577       .  S
C786        C791   1.566       .  S
C786        C808   1.695       .  S
C787        C795   1.386       .  A
C787        C790   1.423       .  A
C788        C791   1.427       .  A
C789        C803   1.391       .  A
C789        C792   1.432       .  A
C790        C793   1.387       .  A
C791        C797   1.383   1_455  A
C792        C800   1.383       .  A
C793        H806   1.081       .  S
C793        N794   1.361       .  A
N794        C795   1.357       .  A
N794        C944   1.417       .  S
C797        H807   1.078       .  S
C797        N798   1.352       .  A
C799        H805   1.080       .  S
C800        H802   1.082       .  S
C800        N801   1.355       .  A
N801        C803   1.365       .  A
N801        C936   1.418       .  S
C808        C810   1.561       .  S
C808        C812   1.534       .  S
C808        C811   1.597       .  S
C809        C813   1.562       .  S
C809        C815   1.567       .  S
C809        C814   1.544       .  S
C810        C818   1.378       .  A
C810        C813   1.434       .  A
C811        C822   1.404       .  A
C811        C814   1.440       .  A
C812        C826   1.366       .  A
C812        C815   1.419       .  A
C813        C816   1.375       .  A
C814        C820   1.384       .  A
C815        C823   1.391       .  A
C816        H829   1.081       .  S
C816        N817   1.354       .  A
N817        C818   1.356       .  A
N817        C940   1.401   1_455  S
C818        H819   1.082       .  S
C820        H830   1.079   1_455  S
C820        N821   1.319       .  A
N821        C822   1.356       .  A
C822        H828   1.077       .  S
C823        H825   1.082       .  S
C823        N824   1.367       .  A
N824        C826   1.343       .  A
N824        C934   1.403       .  S
C826        H827   1.081       .  S
C831        C833   1.555       .  S
C831        C835   1.569       .  S
C831        C834   1.576       .  S
C831        C855   1.731       .  S
C832        C836   1.577       .  S
C832        C838   1.542       .  S
C832        C837   1.527       .  S
C832        C854   1.681       .  S
C833        C841   1.374       .  A
C834        C845   1.398       .  A
C835        C849   1.381       .  A
C836        C839   1.395   1_545  A
C837        C843   1.359       .  A
C838        C846   1.363       .  A
C839        H852   1.078       .  S
N840        C841   1.318   1_565  A
C841        H842   1.079       .  S
C843        H853   1.082       .  S
N844        C845   1.371       .  A
N844        C941   1.404       .  S
C845        H851   1.082       .  S
C846        H848   1.083       .  S
N847        C849   1.364       .  A
N847        C932   1.393       .  S
C849        H850   1.082       .  S
C854        C856   1.561       .  S
C854        C858   1.538       .  S
C854        C857   1.555       .  S
C855        C859   1.571       .  S
C855        C861   1.580       .  S
C855        C860   1.558       .  S
C856        C864   1.379       .  A
C856        C859   1.437       .  A
C857        C868   1.372   1_545  A
C857        C860   1.428       .  A
C858        C872   1.370       .  A
C858        C861   1.425       .  A
C859        C862   1.395       .  A
C860        C866   1.381       .  A
C861        C869   1.398       .  A
C862        H875   1.079   1_545  S
C862        N863   1.327   1_545  A
N863        C864   1.346   1_565  A
C864        H865   1.078       .  S
C866        H876   1.082   1_545  S
C866        N867   1.362   1_545  A
N867        C868   1.353       .  A
N867        C938   1.402       .  S
C868        H874   1.083       .  S
C869        H871   1.082       .  S
C869        N870   1.369       .  A
N870        C872   1.346       .  A
N870        C929   1.414       .  S
C872        H873   1.082       .  S
O877       Ni883   1.930       .  S
O878       Ni901   1.932       .  S
O878        C887   1.272       .  A
O879       Ni901   1.929       .  S
O879       Ni895   1.929       .  S
O879        H902   0.952       .  S
C880        O897   1.268       .  A
C880        O889   1.266       .  A
C880        C931   1.420       .  S
O881       Ni900   1.936       .  S
O881        C887   1.272       .  A
O882       Ni900   1.880       .  S
O882        C884   1.281       .  A
Ni883       O886   1.905       .  S
Ni883       O888   1.867       .  S
C884        O894   1.251       .  A
C884        C910   1.373       .  S
O885       Ni901   1.939       .  S
O885        C891   1.290       .  A
C887        C935   1.458       .  S
O888        C890   1.261       .  A
O889       Ni900   1.910       .  S
C890        O896   1.219       .  A
C890        C916   1.360       .  S
C891        C949   1.443       .  S
O893       Ni901   2.008       .  S
O893       Ni895   1.917       .  S
O893       Ni900   1.901       .  S
O894       Ni895   1.861       .  S
Ni895       O899   1.901       .  S
Ni895       O897   1.930       .  S
C898        O899   1.269       .  A
C898        C959   1.432       .  S
O903       Ni909   1.920       .  S
O903        C924   1.269       .  A
O904       Ni927   1.897       .  S
O904        C913   1.266       .  A
O905       Ni909   1.904       .  S
O905       Ni927   1.915       .  S
O905       Ni921   2.025       .  S
O905        H928   0.954       .  S
C906        O923   1.301       .  A
C906        O915   1.266       .  A
C906        C956   1.467       .  S
O907       Ni926   1.913       .  S
O907        C913   1.274       .  A
O908       Ni926   1.881       .  S
O908        C910   1.265       .  A
Ni909       O912   1.900       .  S
Ni909       O914   1.878       .  S
C910        O920   1.214       .  A
O911       Ni927   1.953       .  S
O911        C917   1.275       .  A
O912        C917   1.262       .  A
C913        C945   1.431       .  S
O914        C916   1.282       .  A
O915       Ni926   1.909       .  S
C916        O922   1.245       .  A
C917        C933   1.432       .  S
H918        O919   0.949       .  S
O919       Ni927   1.965       .  S
O919       Ni921   1.920       .  S
O919       Ni926   1.862       .  S
O920       Ni921   1.810       .  S
Ni921       O925   1.936       .  S
Ni921       O923   1.972       .  S
O922       Ni927   1.852       .  S
C924        O925   1.277       .  A
C924        C930   1.452       .  S
C929        C930   1.217       .  T
C931        C932   1.198       .  T
C933        C934   1.207       .  T
C935        C936   1.220       .  T
C937        C938   1.205       .  T
C939        C940   1.206       .  T
C941        C942   1.210       .  T
C943        C944   1.219       .  T
C945        C946   1.204       .  T
C947        C948   1.208       .  T
C949        C950   1.212       .  T
C951        C952   1.207       .  T
C953        C954   1.205       .  T
C955        C956   1.228       .  T
C957        C958   1.217       .  T
C959        C960   1.204       .  T
