geometry optimzed in LAMMPS
_audit_creation_date              2020-11-30 
_audit_creation_method            'lammps2cif' 
_symmetry_space_group_name_H-M    'P1' 
_symmetry_Int_Tables_number       1 
_symmetry_cell_setting            triclinic 
loop_ 
_symmetry_equiv_pos_as_xyz 
  x,y,z 
_cell_length_a                    30.33536013 
_cell_length_b                    30.325674670389603 
_cell_length_c                    60.586288102829975 
_cell_angle_alpha                 90.05155156204432 
_cell_angle_beta                  89.97978954992757 
_cell_angle_gamma                 89.99970956928998 
loop_ 
_atom_site_label 
_atom_site_type_symbol 
_atom_site_fract_x 
_atom_site_fract_y 
_atom_site_fract_z 
_atom_site_charge 
O1          O  0.04236667  0.06504152  0.12471443    -0.74600
O2          O  0.03757695  0.93868149  0.12550951    -0.74600
O3          O  0.03710455  0.00116092  0.09361296    -0.74700
O4          O  0.04329286  0.00288546  0.15664489    -0.74800
O5          O  0.96977375  0.00336497  0.15835993    -0.74700
O6          O  0.96381953  0.00499475  0.09518078    -0.74700
O7          O  0.96419823  0.94145420  0.12651995    -0.74600
O8          O  0.96909584  0.06738371  0.12704705    -0.74700
Ni9        Ni  0.04270709  0.00180617  0.12505675     1.25400
Ni10       Ni  0.96412023  0.00444839  0.12684701     1.25400
C11         C  0.00638174  0.08709711  0.12579677     0.87600
C12         C  0.00004476  0.91919975  0.12605623     0.87500
C13         C  0.99959468  0.00307792  0.08395048     0.87500
C14         C  0.00751274  0.00302954  0.16783352     0.87700
O15         O  0.96379008  0.50384332  0.09297172    -0.74600
O16         O  0.96198471  0.49937220  0.15627138    -0.74600
O17         O  0.96006588  0.56482762  0.12580392    -0.74700
O18         O  0.96564674  0.43864319  0.12354399    -0.74800
O19         O  0.03900669  0.44171500  0.12454181    -0.74700
O20         O  0.03346243  0.56763894  0.12596549    -0.74700
O21         O  0.03536203  0.50384144  0.15687426    -0.74600
O22         O  0.03717562  0.50615067  0.09368859    -0.74700
Ni23       Ni  0.96023264  0.50155558  0.12462303     1.25400
Ni24       Ni  0.03882573  0.50489736  0.12528570     1.25400
C25         C  0.00089945  0.50553722  0.08285655     0.87600
C26         C  0.99835805  0.50142970  0.16699002     0.87500
C27         C  0.99598462  0.58708788  0.12623405     0.87500
C28         C  0.00322338  0.41931440  0.12372874     0.87700
O29         O  0.46203742  0.05672689  0.12503904    -0.74600
O30         O  0.46138721  0.93112188  0.12649679    -0.74600
O31         O  0.46097717  0.99584881  0.15732433    -0.74700
O32         O  0.46293400  0.99231414  0.09404355    -0.74800
O33         O  0.53636120  0.99304788  0.09467731    -0.74700
O34         O  0.53448828  0.99352413  0.15782540    -0.74700
O35         O  0.53483513  0.93012513  0.12640316    -0.74600
O36         O  0.53546247  0.05692267  0.12614005    -0.74700
Ni37       Ni  0.45926340  0.99398401  0.12568230     1.25400
Ni38       Ni  0.53794306  0.99342821  0.12626521     1.25400
C39         C  0.49861008  0.07770689  0.12568877     0.87600
C40         C  0.49778218  0.90975178  0.12665216     0.87500
C41         C  0.49747507  0.99503832  0.16796205     0.87500
C42         C  0.50004310  0.99228341  0.08389480     0.87700
O43         O  0.45671866  0.43045875  0.12609718    -0.74600
O44         O  0.45612843  0.55660669  0.12538605    -0.74600
O45         O  0.45504612  0.49267047  0.09400293    -0.74700
O46         O  0.45776712  0.49404351  0.15732664    -0.74800
O47         O  0.53126404  0.49631186  0.15637984    -0.74700
O48         O  0.52846567  0.49202288  0.09324817    -0.74700
O49         O  0.52952481  0.55706405  0.12393927    -0.74600
O50         O  0.53017462  0.43082980  0.12576307    -0.74700
Ni51       Ni  0.45378559  0.49345347  0.12570903     1.25400
Ni52       Ni  0.53245140  0.49401851  0.12478968     1.25400
C53         C  0.49354240  0.40977377  0.12620798     0.87600
C54         C  0.49271425  0.57772142  0.12465126     0.87500
C55         C  0.49135264  0.49186518  0.08315215     0.87500
C56         C  0.49502990  0.49586652  0.16723599     0.87700
O57         O  0.96808901  0.93826649  0.87531702    -0.74600
O58         O  0.96303922  0.06464203  0.87501719    -0.74600
O59         O  0.96721019  0.00076959  0.84352478    -0.74700
O60         O  0.96371627  0.00177758  0.90667540    -0.74800
O61         O  0.03713597  0.00263134  0.90770062    -0.74700
O62         O  0.04057370  0.00571692  0.84445624    -0.74700
O63         O  0.03636794  0.06678560  0.87688896    -0.74600
O64         O  0.04149133  0.94090792  0.87543527    -0.74700
Ni65       Ni  0.96289319  0.00125905  0.87507474     1.25400
Ni66       Ni  0.04149988  0.00407877  0.87613186     1.25400
C67         C  0.00556473  0.91870125  0.87540232     0.87600
C68         C  0.99908055  0.08657608  0.87626458     0.87500
C69         C  0.00440173  0.00340308  0.83360110     0.87500
C70         C  0.99981949  0.00227928  0.91764014     0.87700
O71         O  0.96617512  0.56685150  0.87493148    -0.74600
O72         O  0.96120320  0.44027040  0.87488658    -0.74600
O73         O  0.96559368  0.50359310  0.90643812    -0.74700
O74         O  0.96127897  0.50400218  0.84334250    -0.74800
O75         O  0.03463333  0.49981158  0.84204158    -0.74700
O76         O  0.03899220  0.50232161  0.90532076    -0.74700
O77         O  0.03462323  0.43838514  0.87432722    -0.74600
O78         O  0.03948321  0.56408834  0.87310772    -0.74700
Ni79       Ni  0.96093270  0.50375466  0.87492865     1.25400
Ni80       Ni  0.03951855  0.50104257  0.87363030     1.25400
C81         C  0.00367197  0.58634974  0.87404284     0.87600
C82         C  0.99742599  0.41845656  0.87488548     0.87500
C83         C  0.00289803  0.50317607  0.91634441     0.87500
C84         C  0.99719890  0.50193935  0.83228503     0.87700
O85         O  0.53545111  0.93327693  0.87564798    -0.74600
O86         O  0.53459407  0.05980834  0.87463972    -0.74600
O87         O  0.53603911  0.99769977  0.90677248    -0.74700
O88         O  0.53427359  0.99579895  0.84362812    -0.74800
O89         O  0.46078526  0.99386981  0.84423424    -0.74700
O90         O  0.46260283  0.99806432  0.90742283    -0.74700
O91         O  0.46114079  0.05906470  0.87472158    -0.74600
O92         O  0.46203502  0.93323569  0.87677317    -0.74700
Ni93       Ni  0.53772592  0.99664599  0.87517635     1.25400
Ni94       Ni  0.45905331  0.99607952  0.87582635     1.25400
C95         C  0.49872210  0.91236373  0.87633538     0.87600
C96         C  0.49763570  0.08029363  0.87425853     0.87500
C97         C  0.49969057  0.99819721  0.91755673     0.87500
C98         C  0.49721972  0.99438687  0.83352880     0.87700
O99         O  0.53505478  0.43300531  0.87384684    -0.74600
O100        O  0.53486872  0.55948727  0.87601400    -0.74600
O101        O  0.53356857  0.49392839  0.90668648    -0.74700
O102        O  0.53630493  0.49881468  0.84340644    -0.74800
O103        O  0.46279323  0.49729404  0.84265029    -0.74700
O104        O  0.46015981  0.49448302  0.90572514    -0.74700
O105        O  0.46145520  0.55905334  0.87483502    -0.74600
O106        O  0.46160643  0.43320037  0.87339026    -0.74700
Ni107      Ni  0.53761891  0.49628788  0.87504133     1.25400
Ni108      Ni  0.45895203  0.49604600  0.87415023     1.25400
C109        C  0.49823933  0.41223820  0.87324493     0.87600
C110        C  0.49802902  0.58015974  0.87544318     0.87500
C111        C  0.49627629  0.49331349  0.91666869     0.87500
C112        C  0.49993491  0.49879098  0.83264419     0.87700
O113        O  0.06649025  0.96374293  0.37516855    -0.74600
O114        O  0.94030768  0.96136045  0.37423572    -0.74600
O115        O  0.00404686  0.96467125  0.34316854    -0.74700
O116        O  0.00257402  0.96015817  0.40623360    -0.74800
O117        O  0.00049451  0.03355172  0.40763984    -0.74700
O118        O  0.00371841  0.03816585  0.34443946    -0.74700
O119        O  0.93884212  0.03479681  0.37531210    -0.74600
O120        O  0.06498186  0.03712859  0.37685292    -0.74700
Ni121      Ni  0.00340552  0.95989028  0.37465067     1.25400
Ni122      Ni  0.00191908  0.03853592  0.37609925     1.25400
C123        C  0.08660992  0.00085737  0.37625039     0.87600
C124        C  0.91870197  0.99767014  0.37462255     0.87500
C125        C  0.00431468  0.00209585  0.33339591     0.87500
C126        C  0.00136123  0.99604869  0.41738257     0.87700
O127        O  0.99749710  0.47024163  0.34316126    -0.74600
O128        O  0.99875882  0.46953795  0.40632478    -0.74600
O129        O  0.93535188  0.46889343  0.37499580    -0.74700
O130        O  0.06122234  0.47072600  0.37449775    -0.74800
O131        O  0.06089284  0.54419439  0.37586402    -0.74700
O132        O  0.93423230  0.54232973  0.37389931    -0.74700
O133        O  0.99585028  0.54296348  0.40632429    -0.74600
O134        O  0.99971626  0.54380944  0.34319499    -0.74700
Ni135      Ni  0.99829810  0.46726676  0.37472598     1.25400
Ni136      Ni  0.99760087  0.54599008  0.37481941     1.25400
C137        C  0.99852663  0.50703762  0.33281040     0.87600
C138        C  0.99723563  0.50625724  0.41676411     0.87500
C139        C  0.91388605  0.50522095  0.37440150     0.87500
C140        C  0.08189791  0.50753030  0.37533770     0.87700
O141        O  0.56512051  0.96057161  0.37581319    -0.74600
O142        O  0.43890110  0.96306235  0.37527155    -0.74600
O143        O  0.50296529  0.96209337  0.34390162    -0.74700
O144        O  0.50161453  0.96145816  0.40719809    -0.74800
O145        O  0.50364110  0.03490630  0.40735378    -0.74700
O146        O  0.50283569  0.03567341  0.34422128    -0.74700
O147        O  0.44039989  0.03651207  0.37596147    -0.74600
O148        O  0.56653476  0.03405004  0.37573191    -0.74700
Ni149      Ni  0.50206006  0.95916376  0.37553666     1.25400
Ni150      Ni  0.50344464  0.03787755  0.37581370     1.25400
C151        C  0.58668533  0.99690019  0.37582950     0.87600
C152        C  0.41876717  0.00023801  0.37564409     0.87500
C153        C  0.50279362  0.99905209  0.33367476     0.87500
C154        C  0.50269959  0.99812519  0.41773289     0.87700
O155        O  0.55976470  0.46774618  0.37624703    -0.74600
O156        O  0.43370882  0.47047735  0.37416226    -0.74600
O157        O  0.49822791  0.46824592  0.34359031    -0.74700
O158        O  0.49435915  0.46997923  0.40685814    -0.74800
O159        O  0.49669989  0.54342205  0.40626717    -0.74700
O160        O  0.50001301  0.54179696  0.34315012    -0.74700
O161        O  0.43499064  0.54400273  0.37410554    -0.74600
O162        O  0.56138515  0.54119693  0.37543042    -0.74700
Ni163      Ni  0.49653360  0.46649521  0.37523353     1.25400
Ni164      Ni  0.49832527  0.54521296  0.37471839     1.25400
C165        C  0.58146297  0.50402907  0.37605345     0.87600
C166        C  0.41354239  0.50758132  0.37391268     0.87500
C167        C  0.49948834  0.50475634  0.33297797     0.87500
C168        C  0.49470387  0.50709122  0.41700266     0.87700
O169        O  0.93635049  0.03114077  0.62518040    -0.74600
O170        O  0.06315452  0.03217604  0.62478251    -0.74600
O171        O  0.99944196  0.02970970  0.59355011    -0.74700
O172        O  0.00070715  0.03416241  0.65663657    -0.74800
O173        O  0.99928390  0.96065829  0.65794828    -0.74700
O174        O  0.00107914  0.95629043  0.59466470    -0.74700
O175        O  0.06304059  0.95880036  0.62668501    -0.74600
O176        O  0.93739377  0.95768688  0.62590585    -0.74700
Ni177      Ni  0.99980934  0.03444847  0.62501313     1.25400
Ni178      Ni  0.00020573  0.95578618  0.62635229     1.25400
C179        C  0.91598518  0.99402732  0.62537962     0.87600
C180        C  0.08397717  0.99541612  0.62573645     0.87500
C181        C  0.00050729  0.99238399  0.58365675     0.87500
C182        C  0.00040869  0.99818120  0.66768629     0.87700
O183        O  0.99603579  0.46839286  0.59320977    -0.74600
O184        O  0.99591449  0.46947498  0.65646357    -0.74600
O185        O  0.93243303  0.46924166  0.62473515    -0.74700
O186        O  0.05902629  0.46867213  0.62493095    -0.74800
O187        O  0.05874653  0.54214944  0.62527283    -0.74700
O188        O  0.93296158  0.54271496  0.62416332    -0.74700
O189        O  0.99429621  0.54307451  0.65622142    -0.74600
O190        O  0.99694369  0.54187156  0.59325086    -0.74700
Ni191      Ni  0.99579416  0.46626180  0.62485197     1.25400
Ni192      Ni  0.99579482  0.54500817  0.62471023     1.25400
C193        C  0.99670340  0.50514737  0.58279436     0.87600
C194        C  0.99487598  0.50646365  0.66668540     0.87500
C195        C  0.91182031  0.50618592  0.62437590     0.87500
C196        C  0.07976755  0.50549637  0.62518333     0.87700
O197        O  0.43737811  0.02912469  0.62663244    -0.74600
O198        O  0.56374215  0.02675898  0.62596771    -0.74600
O199        O  0.50025855  0.02904580  0.59484700    -0.74700
O200        O  0.50147248  0.02702191  0.65790736    -0.74800
O201        O  0.49800396  0.95349617  0.65727477    -0.74700
O202        O  0.50040111  0.95558773  0.59401068    -0.74700
O203        O  0.56240133  0.95327840  0.62609090    -0.74600
O204        O  0.43638884  0.95568347  0.62531265    -0.74700
Ni205      Ni  0.50071780  0.03059852  0.62637279     1.25400
Ni206      Ni  0.49926577  0.95188320  0.62564720     1.25400
C207        C  0.41601190  0.99265646  0.62607065     0.87600
C208        C  0.58393237  0.98963598  0.62587581     0.87500
C209        C  0.50076139  0.99279792  0.58397910     0.87500
C210        C  0.49951344  0.98995223  0.66793837     0.87700
O211        O  0.43260154  0.47003464  0.62547210    -0.74600
O212        O  0.55903421  0.47090412  0.62449246    -0.74600
O213        O  0.49633703  0.47000922  0.65663115    -0.74700
O214        O  0.49462840  0.47099103  0.59334917    -0.74800
O215        O  0.49411914  0.54448656  0.59383851    -0.74700
O216        O  0.49763204  0.54360487  0.65687819    -0.74700
O217        O  0.55859691  0.54438563  0.62455508    -0.74600
O218        O  0.43268807  0.54350387  0.62619481    -0.74700
Ni219      Ni  0.49573550  0.46782437  0.62497760     1.25400
Ni220      Ni  0.49569266  0.54656818  0.62537351     1.25400
C221        C  0.41177190  0.50677073  0.62602748     0.87600
C222        C  0.57969652  0.50781681  0.62434384     0.87500
C223        C  0.49736893  0.50671243  0.66711047     0.87500
C224        C  0.49389581  0.50801049  0.58315947     0.87700
C225        C  0.86301512  0.50716834  0.62427375    -0.01500
C226        C  0.84077157  0.54744987  0.62641608    -0.09500
C227        C  0.79487527  0.54922397  0.62638115    -0.18300
C228        C  0.76933685  0.51050460  0.62411397     0.04100
C229        C  0.79198896  0.46965208  0.62192925     0.18200
C230        C  0.83832222  0.46833567  0.62205817    -0.19800
C231        C  0.76826231  0.43033600  0.61965047    -0.21000
C232        C  0.72243388  0.43061223  0.61961931    -0.19600
C233        C  0.69915387  0.47021877  0.62182164     0.19600
C234        C  0.72223617  0.51080846  0.62399917     0.01800
C235        C  0.69709961  0.54988132  0.62598278    -0.14300
C236        C  0.65116113  0.54862343  0.62597055    -0.12000
C237        C  0.62851545  0.50853073  0.62403112     0.01300
C238        C  0.65282827  0.46943085  0.62190227    -0.24200
H239        H  0.85892747  0.57799021  0.62823940     0.09300
H240        H  0.78048682  0.58150453  0.62820383     0.12900
H241        H  0.85514816  0.43696755  0.62035084     0.11600
H242        H  0.78528130  0.39909263  0.61793816     0.12800
H243        H  0.70505689  0.39957077  0.61789215     0.11800
H244        H  0.71184023  0.58204790  0.62759045     0.08900
H245        H  0.63330042  0.57937701  0.62762421     0.12200
H246        H  0.63570022  0.43820996  0.62028700     0.14000
C247        C  0.12858232  0.50612112  0.62535768    -0.01500
C248        C  0.15100398  0.54648497  0.62505163    -0.09500
C249        C  0.19686473  0.54802086  0.62528854    -0.18300
C250        C  0.22223750  0.50895857  0.62586240     0.04100
C251        C  0.19947875  0.46795629  0.62590165     0.18200
C252        C  0.15311628  0.46688718  0.62573945    -0.19800
C253        C  0.22315183  0.42831843  0.62601582    -0.21000
C254        C  0.26902250  0.42850644  0.62598336    -0.19600
C255        C  0.29237382  0.46833854  0.62609571     0.19600
C256        C  0.26929852  0.50915287  0.62624144     0.01800
C257        C  0.29437247  0.54842197  0.62684228    -0.14300
C258        C  0.34025398  0.54726115  0.62689478    -0.12000
C259        C  0.36296829  0.50708394  0.62636951     0.01300
C260        C  0.33873347  0.46765027  0.62607451    -0.24200
H261        H  0.13302012  0.57732363  0.62459771     0.09300
H262        H  0.21134377  0.58044374  0.62486088     0.12900
H263        H  0.13616534  0.43540704  0.62587326     0.11600
H264        H  0.20606597  0.39692684  0.62601032     0.12800
H265        H  0.28636263  0.39725470  0.62593519     0.11800
H266        H  0.27963931  0.58072475  0.62737899     0.08900
H267        H  0.35802057  0.57823000  0.62729207     0.12200
H268        H  0.35591781  0.43629928  0.62579775     0.14000
C269        C  0.86717125  0.99246814  0.62497199    -0.01500
C270        C  0.84534209  0.95235144  0.62852331    -0.09500
C271        C  0.79946590  0.94994238  0.62829712    -0.18300
C272        C  0.77351796  0.98784645  0.62443894     0.04100
C273        C  0.79574747  0.02843025  0.62053531     0.18200
C274        C  0.84207612  0.03040019  0.62087036    -0.19800
C275        C  0.77160357  0.06688516  0.61646484    -0.21000
C276        C  0.72579202  0.06615169  0.61660337    -0.19600
C277        C  0.70295588  0.02692855  0.62076641     0.19600
C278        C  0.72640596  0.98705486  0.62452052     0.01800
C279        C  0.70160583  0.94827308  0.62835718    -0.14300
C280        C  0.65561082  0.94925814  0.62871835    -0.12000
C281        C  0.63270432  0.98878112  0.62536006     0.01300
C282        C  0.65668591  0.02745957  0.62129404    -0.24200
H283        H  0.86381390  0.92245073  0.63168384     0.09300
H284        H  0.78541379  0.91789644  0.63131434     0.12900
H285        H  0.85858207  0.06155129  0.61790335     0.11600
H286        H  0.78827496  0.09786707  0.61333553     0.12800
H287        H  0.70807878  0.09659174  0.61357743     0.11800
H288        H  0.71666212  0.91662191  0.63119811     0.08900
H289        H  0.63792489  0.91885579  0.63181892     0.12200
H290        H  0.63931396  0.05818148  0.61844929     0.14000
C291        C  0.36721151  0.99276817  0.62639538    -0.01500
C292        C  0.34431906  0.95332104  0.62996988    -0.09500
C293        C  0.29842439  0.95237875  0.63013852    -0.18300
C294        C  0.27351916  0.99111760  0.62656098     0.04100
C295        C  0.29679181  0.03122050  0.62306661     0.18200
C296        C  0.34317691  0.03174373  0.62310627    -0.19800
C297        C  0.27361985  0.07049387  0.61946965    -0.21000
C298        C  0.22774852  0.07084938  0.61930566    -0.19600
C299        C  0.20387568  0.03193355  0.62271516     0.19600
C300        C  0.22643740  0.99145940  0.62631804     0.01800
C301        C  0.20085963  0.95302684  0.62946373    -0.14300
C302        C  0.15500584  0.95474503  0.62918335    -0.12000
C303        C  0.13278507  0.99466560  0.62582085     0.01300
C304        C  0.15750256  0.03321656  0.62254953    -0.24200
H305        H  0.36197787  0.92278413  0.63276093     0.09300
H306        H  0.28358022  0.92068614  0.63309904     0.08100
H307        H  0.36054898  0.06248945  0.62032964     0.11600
H308        H  0.29110431  0.10118467  0.61676152     0.12800
H309        H  0.21081924  0.10181029  0.61649091     0.11800
H310        H  0.21513615  0.92098651  0.63217126     0.08900
H311        H  0.13686728  0.92440684  0.63173656     0.12200
H312        H  0.14068869  0.06428013  0.61980635     0.14000
C313        C  0.49294085  0.50894633  0.55876027    -0.01500
C314        C  0.50305540  0.54795207  0.54750422    -0.09500
C315        C  0.50273212  0.54943313  0.52451499    -0.18300
C316        C  0.49192200  0.51171979  0.51188109     0.04100
C317        C  0.48128311  0.47225172  0.52337196     0.18200
C318        C  0.48199985  0.47117755  0.54656720    -0.19800
C319        C  0.47024890  0.43402288  0.51164512    -0.21000
C320        C  0.47036065  0.43386034  0.48868830    -0.19600
C321        C  0.48133042  0.47197729  0.47688111     0.19600
C322        C  0.49171813  0.51163576  0.48830072     0.01800
C323        C  0.50169746  0.54942555  0.47559740    -0.14300
C324        C  0.50219443  0.54767381  0.45261636    -0.12000
C325        C  0.49298873  0.50833927  0.44141342     0.01300
C326        C  0.48224344  0.47061764  0.45367941    -0.24200
H327        H  0.51179762  0.57755847  0.55651339     0.09300
H328        H  0.51136017  0.58059577  0.51719437     0.12900
H329        H  0.47384172  0.44087727  0.55513450     0.11600
H330        H  0.46184756  0.40389744  0.52029238     0.12800
H331        H  0.46206710  0.40360509  0.48010591     0.11800
H332        H  0.50939464  0.58090959  0.48285774     0.08900
H333        H  0.51039805  0.57736502  0.44357730     0.12200
H334        H  0.47452724  0.44010612  0.44517426     0.14000
C335        C  0.50298924  0.99823412  0.44217952    -0.01500
C336        C  0.50007945  0.03812154  0.45376400    -0.09500
C337        C  0.50037727  0.03886582  0.47676959    -0.18300
C338        C  0.50367537  0.99944253  0.48910909     0.04100
C339        C  0.50665052  0.95899828  0.47730872     0.18200
C340        C  0.50631956  0.95874649  0.45410791    -0.19800
C341        C  0.50970218  0.91900824  0.48872907    -0.21000
C342        C  0.50926713  0.91821137  0.51167672    -0.19600
C343        C  0.50605614  0.95740956  0.52378659     0.19600
C344        C  0.50369944  0.99865330  0.51268685     0.01800
C345        C  0.50132381  0.03729698  0.52569287    -0.14300
C346        C  0.50047628  0.03502583  0.54865540    -0.12000
C347        C  0.50197672  0.99433474  0.55955560     0.01300
C348        C  0.50504910  0.95559870  0.54697357    -0.24200
H349        H  0.49735426  0.06913288  0.44501349     0.09300
H350        H  0.49770576  0.07089201  0.48434314     0.12900
H351        H  0.50868170  0.92765129  0.44534026     0.11600
H352        H  0.51210884  0.88806377  0.47984381     0.12800
H353        H  0.51132465  0.88667103  0.52001355     0.11800
H354        H  0.50008366  0.06989002  0.51868371     0.08900
H355        H  0.49846941  0.06553198  0.55791318     0.12200
H356        H  0.50665241  0.92391167  0.55520994     0.14000
C357        C  0.99709188  0.50568826  0.55839715    -0.01500
C358        C  0.99447931  0.54596125  0.54720336    -0.09500
C359        C  0.99462382  0.54750133  0.52426210    -0.18300
C360        C  0.99747012  0.50850326  0.51156329     0.04100
C361        C  0.00027201  0.46759694  0.52293728     0.18200
C362        C  0.00001255  0.46652537  0.54613770    -0.19800
C363        C  0.00323564  0.42805637  0.51108412    -0.21000
C364        C  0.00324854  0.42824145  0.48812354    -0.19600
C365        C  0.00031375  0.46797255  0.47646023     0.19600
C366        C  0.99750919  0.50869754  0.48801664     0.01800
C367        C  0.99477283  0.54790381  0.47548983    -0.14300
C368        C  0.99464586  0.54671166  0.45253189    -0.12000
C369        C  0.99724206  0.50659898  0.44116736     0.01300
C370        C  0.00012528  0.46726159  0.45326385    -0.24200
H371        H  0.99213199  0.57674254  0.55621165     0.09300
H372        H  0.99239102  0.57984495  0.51705995     0.12900
H373        H  0.00214551  0.43514234  0.55462840     0.11600
H374        H  0.00546235  0.39675104  0.51962918     0.12800
H375        H  0.00548696  0.39707194  0.47942724     0.11800
H376        H  0.99266679  0.58014768  0.48284229     0.08900
H377        H  0.99247040  0.57761667  0.44364828     0.12200
H378        H  0.00227779  0.43598795  0.44464588     0.14000
C379        C  0.86501800  0.50391066  0.37445593    -0.01500
C380        C  0.84286691  0.46412800  0.37846249    -0.09500
C381        C  0.79689838  0.46240399  0.37900188    -0.18300
C382        C  0.77125056  0.50064233  0.37538854     0.04100
C383        C  0.79382345  0.54069674  0.37072759     0.18200
C384        C  0.84016138  0.54207291  0.37052799    -0.19800
C385        C  0.77002668  0.57915704  0.36619370    -0.21000
C386        C  0.72421130  0.57880047  0.36621745    -0.19600
C387        C  0.70100108  0.54017009  0.37117381     0.19600
C388        C  0.72410910  0.50056528  0.37603369     0.01800
C389        C  0.69895807  0.46278450  0.38146186    -0.14300
C390        C  0.65291501  0.46411145  0.38153569    -0.12000
C391        C  0.63031306  0.50304130  0.37636566     0.01300
C392        C  0.65469514  0.54101965  0.37133095    -0.24200
H393        H  0.86115317  0.43402152  0.38139845     0.09300
H394        H  0.78247675  0.43055216  0.38211926     0.12900
H395        H  0.85687598  0.57293834  0.36714066     0.11600
H396        H  0.78697969  0.60972713  0.36248342     0.12800
H397        H  0.70678922  0.60909683  0.36249467     0.11800
H398        H  0.71383170  0.43176246  0.38586629     0.08900
H399        H  0.63492745  0.43443914  0.38576365     0.12200
H400        H  0.63760108  0.57138194  0.36733782     0.14000
C401        C  0.36487110  0.50785549  0.37346595    -0.01500
C402        C  0.34222041  0.47134348  0.36507466    -0.09500
C403        C  0.29633828  0.47005941  0.36509079    -0.18300
C404        C  0.27129697  0.50531042  0.37384585     0.04100
C405        C  0.29439600  0.54252591  0.38224869     0.18200
C406        C  0.34077618  0.54361365  0.38184899    -0.19800
C407        C  0.27105297  0.57828452  0.39106502    -0.21000
C408        C  0.22516038  0.57818713  0.39142143    -0.19600
C409        C  0.20145455  0.54220034  0.38310061     0.19600
C410        C  0.22423366  0.50497834  0.37446990     0.01800
C411        C  0.19888992  0.46892510  0.36687198    -0.14300
C412        C  0.15303740  0.47008077  0.36744461    -0.12000
C413        C  0.13063074  0.50715345  0.37539715     0.01300
C414        C  0.15504239  0.54314988  0.38330815    -0.24200
H415        H  0.36012786  0.44352770  0.35830510     0.09300
H416        H  0.28162275  0.44092171  0.35811199     0.12900
H417        H  0.35814302  0.57193871  0.38846967     0.11600
H418        H  0.28841077  0.60665256  0.39762314     0.12800
H419        H  0.20808729  0.60651128  0.39821536     0.11800
H420        H  0.21334718  0.43918925  0.36040642     0.08900
H421        H  0.13497613  0.44181369  0.36128706     0.12200
H422        H  0.13793432  0.57176267  0.38979107     0.14000
C423        C  0.00119131  0.99122370  0.55922288    -0.01500
C424        C  0.00544531  0.95120353  0.54785601    -0.09500
C425        C  0.00603570  0.95013902  0.52480409    -0.18300
C426        C  0.00223677  0.98934814  0.51228953     0.04100
C427        C  0.99840074  0.02987730  0.52394263     0.18200
C428        C  0.99786194  0.03043088  0.54708932    -0.19800
C429        C  0.99506168  0.06974050  0.51245903    -0.21000
C430        C  0.99532265  0.07033163  0.48954807    -0.19600
C431        C  0.99864212  0.03104867  0.47754726     0.19600
C432        C  0.00205278  0.98992312  0.48869577     0.01800
C433        C  0.00483116  0.95125434  0.47570646    -0.14300
C434        C  0.00437897  0.95343184  0.45269544    -0.12000
C435        C  0.00126906  0.99406372  0.44180229     0.01300
C436        C  0.99842065  0.03274602  0.45439533    -0.24200
H437        H  0.00841829  0.92044400  0.55680502     0.09300
H438        H  0.00956978  0.91811321  0.51730949     0.12900
H439        H  0.99470407  0.06166757  0.55566814     0.11600
H440        H  0.99222665  0.10073754  0.52126850     0.12800
H441        H  0.99270621  0.10176735  0.48114963     0.11800
H442        H  0.00721716  0.91878159  0.48279174     0.08900
H443        H  0.00661481  0.92298902  0.44339921     0.12200
H444        H  0.99591277  0.06439764  0.44617989     0.14000
C445        C  0.86990274  0.99656479  0.37442082    -0.01500
C446        C  0.84758719  0.95662194  0.37126790    -0.09500
C447        C  0.80163994  0.95496563  0.37139489    -0.18300
C448        C  0.77622050  0.99346661  0.37481599     0.04100
C449        C  0.79900135  0.03393445  0.37808680     0.18200
C450        C  0.84529383  0.03516966  0.37771766    -0.19800
C451        C  0.77547914  0.07292382  0.38185472    -0.21000
C452        C  0.72968024  0.07267858  0.38240830    -0.19600
C453        C  0.70624574  0.03350276  0.37902968     0.19600
C454        C  0.72911864  0.99328757  0.37517445     0.01800
C455        C  0.70378780  0.95471834  0.37177877    -0.14300
C456        C  0.65783894  0.95609884  0.37216542    -0.12000
C457        C  0.63545255  0.99581580  0.37585203     0.01300
C458        C  0.65995225  0.03439857  0.37935547    -0.24200
H459        H  0.86571737  0.92628609  0.36866972     0.09300
H460        H  0.78712376  0.92295083  0.36889035     0.12900
H461        H  0.86216943  0.06627570  0.38027197     0.11600
H462        H  0.79263610  0.10385049  0.38444084     0.12800
H463        H  0.71245213  0.10342549  0.38539293     0.11800
H464        H  0.71837525  0.92295189  0.36865321     0.08900
H465        H  0.63975784  0.92581705  0.36933433     0.12200
H466        H  0.64298759  0.06531095  0.38233048     0.14000
C467        C  0.36994971  0.00148552  0.37583112    -0.01500
C468        C  0.34769820  0.04184440  0.37751028    -0.09500
C469        C  0.30174425  0.04349475  0.37791066    -0.18300
C470        C  0.27624621  0.00454138  0.37660589     0.04100
C471        C  0.29896411  0.96363938  0.37496763     0.18200
C472        C  0.34525284  0.96248583  0.37454926    -0.19800
C473        C  0.27538306  0.92405222  0.37380381    -0.21000
C474        C  0.22959133  0.92412150  0.37420647    -0.19600
C475        C  0.20621514  0.96379830  0.37563260     0.19600
C476        C  0.22912836  0.00463849  0.37684157     0.01800
C477        C  0.20381265  0.04373372  0.37809586    -0.14300
C478        C  0.15783725  0.04226763  0.37800555    -0.12000
C479        C  0.13541171  0.00195545  0.37672247     0.01300
C480        C  0.15993145  0.96281507  0.37567700    -0.24200
H481        H  0.36587599  0.07250931  0.37861121     0.09300
H482        H  0.28727262  0.07580000  0.37931781     0.12900
H483        H  0.36204868  0.93102911  0.37325692     0.11600
H484        H  0.29248856  0.89276461  0.37258786     0.12800
H485        H  0.21232005  0.89288618  0.37327906     0.11800
H486        H  0.21844685  0.07603374  0.37901903     0.08900
H487        H  0.13978975  0.07304166  0.37886132     0.12200
H488        H  0.14299967  0.93138700  0.37470302     0.14000
C489        C  0.50066371  0.50068747  0.80835859    -0.01500
C490        C  0.53396130  0.52384566  0.79738879    -0.09500
C491        C  0.53420282  0.52668019  0.77439520    -0.18300
C492        C  0.50144599  0.50542241  0.76161469     0.04100
C493        C  0.46869219  0.48056024  0.77287970     0.18200
C494        C  0.46798045  0.47931468  0.79603172    -0.19800
C495        C  0.43727290  0.45653626  0.76097672    -0.21000
C496        C  0.43817388  0.45595542  0.73804141    -0.19600
C497        C  0.46939393  0.48081593  0.72646476     0.19600
C498        C  0.50058170  0.50708692  0.73807737     0.01800
C499        C  0.52912405  0.53429346  0.72561299    -0.14300
C500        C  0.52751143  0.53437588  0.70259804    -0.12000
C501        C  0.49833208  0.50669145  0.69133927     0.01300
C502        C  0.46935715  0.47995459  0.70329392    -0.24200
H503        H  0.55961099  0.54042093  0.80666689     0.09300
H504        H  0.56101013  0.54486692  0.76709502     0.12900
H505        H  0.44255559  0.46070095  0.80449516     0.11600
H506        H  0.41236201  0.43734659  0.76947154     0.12800
H507        H  0.41395833  0.43632225  0.72929160     0.11800
H508        H  0.55237737  0.55652576  0.73316858     0.08900
H509        H  0.54968486  0.55570556  0.69351174     0.12200
H510        H  0.44597207  0.45934718  0.69450698     0.14000
C511        C  0.49646601  0.99331600  0.80920165    -0.01500
C512        C  0.46102770  0.97390987  0.79806573    -0.09500
C513        C  0.46026915  0.97214736  0.77506129    -0.18300
C514        C  0.49483902  0.99057338  0.76240541     0.04100
C515        C  0.52985576  0.01184854  0.77381652     0.18200
C516        C  0.53084948  0.01216424  0.79698483    -0.19800
C517        C  0.56336713  0.03313048  0.76204325    -0.21000
C518        C  0.56262964  0.03414915  0.73910812    -0.19600
C519        C  0.52932298  0.01242335  0.72739467     0.19600
C520        C  0.49557695  0.98927593  0.73886096     0.01800
C521        C  0.46453834  0.96519417  0.72625040    -0.14300
C522        C  0.46653457  0.96487923  0.70324026    -0.12000
C523        C  0.49863490  0.98933634  0.69214551     0.01300
C524        C  0.52982601  0.01321398  0.70422915    -0.24200
H525        H  0.43393546  0.95948435  0.80720811     0.09300
H526        H  0.43175762  0.95694316  0.76767240     0.12900
H527        H  0.55795958  0.02803520  0.80553884     0.11600
H528        H  0.58997847  0.04968458  0.77064075     0.12800
H529        H  0.58866933  0.05148337  0.73046282     0.11800
H530        H  0.43894833  0.94552857  0.73367712     0.08900
H531        H  0.44237520  0.94604994  0.69402906     0.12200
H532        H  0.55516657  0.03153244  0.69553983     0.14000
C533        C  0.49812737  0.86351755  0.87643462    -0.01500
C534        C  0.45796219  0.84105559  0.87832693    -0.09500
C535        C  0.45634661  0.79514336  0.87798849    -0.18300
C536        C  0.49520603  0.76981844  0.87570296     0.04100
C537        C  0.53602450  0.79263011  0.87403571     0.18200
C538        C  0.53714525  0.83901201  0.87436058    -0.19800
C539        C  0.57550277  0.76902928  0.87211601    -0.21000
C540        C  0.57538635  0.72315349  0.87207180    -0.19600
C541        C  0.53574724  0.69973572  0.87371150     0.19600
C542        C  0.49501595  0.72270963  0.87524345     0.01800
C543        C  0.45582694  0.69752341  0.87623176    -0.14300
C544        C  0.45718131  0.65157870  0.87625442    -0.12000
C545        C  0.49739540  0.62899651  0.87530288     0.01300
C546        C  0.53662053  0.65336570  0.87386111    -0.24200
H547        H  0.42728787  0.85902000  0.88007947     0.09300
H548        H  0.42419667  0.78065264  0.87969262     0.12900
H549        H  0.56844929  0.85598394  0.87292692     0.11600
H550        H  0.60674326  0.78616073  0.87080888     0.12800
H551        H  0.60654576  0.70587319  0.87075602     0.11800
H552        H  0.42358477  0.71214719  0.87692184     0.08900
H553        H  0.42631516  0.63368964  0.87711468     0.12200
H554        H  0.56792936  0.63628702  0.87280335     0.14000
C555        C  0.49688709  0.12904573  0.87320769    -0.01500
C556        C  0.45681519  0.15148916  0.87082007    -0.09500
C557        C  0.45552945  0.19741891  0.87006323    -0.18300
C558        C  0.49456632  0.22269047  0.87178370     0.04100
C559        C  0.53523794  0.19976825  0.87385547     0.18200
C560        C  0.53604263  0.15347695  0.87452622    -0.19800
C561        C  0.57488859  0.22316182  0.87538531    -0.21000
C562        C  0.57505637  0.26899192  0.87511260    -0.19600
C563        C  0.53555504  0.29257688  0.87341699     0.19600
C564        C  0.49471135  0.26979105  0.87167982     0.01800
C565        C  0.45576308  0.29518440  0.87018139    -0.14300
C566        C  0.45730941  0.34109035  0.87059268    -0.12000
C567        C  0.49755486  0.36346020  0.87242564     0.01300
C568        C  0.53664142  0.33891350  0.87367388    -0.24200
H569        H  0.42608087  0.13348665  0.86952827     0.09300
H570        H  0.42340772  0.21202181  0.86816543     0.12900
H571        H  0.56729335  0.13648687  0.87626414     0.11600
H572        H  0.60601597  0.20588285  0.87689769     0.12800
H573        H  0.60630671  0.28611937  0.87641767     0.11800
H574        H  0.42347439  0.28069601  0.86885707     0.08900
H575        H  0.42656921  0.35913692  0.86953035     0.12200
H576        H  0.56799723  0.35583430  0.87509585     0.14000
C577        C  0.99534665  0.50251053  0.80795223    -0.01500
C578        C  0.96070588  0.52396538  0.79711363    -0.09500
C579        C  0.95942803  0.52604973  0.77410824    -0.18300
C580        C  0.99257967  0.50586046  0.76116315     0.04100
C581        C  0.02653074  0.48237098  0.77227843     0.18200
C582        C  0.02812364  0.48171115  0.79543641    -0.19800
C583        C  0.05847251  0.45935118  0.76022571    -0.21000
C584        C  0.05714395  0.45866444  0.73730380    -0.19600
C585        C  0.02484444  0.48235537  0.72587869     0.19600
C586        C  0.99286466  0.50743110  0.73761619     0.01800
C587        C  0.96309593  0.53351494  0.72525748    -0.14300
C588        C  0.96436390  0.53360576  0.70222489    -0.12000
C589        C  0.99441326  0.50698589  0.69088798     0.01300
C590        C  0.02458019  0.48146886  0.70272731    -0.24200
H591        H  0.93480185  0.53992248  0.80649324     0.09300
H592        H  0.93167714  0.54297802  0.76693721     0.12900
H593        H  0.05451635  0.46425410  0.80375921     0.11600
H594        H  0.08427155  0.44116318  0.76859626     0.12800
H595        H  0.08190720  0.43992366  0.72844011     0.11800
H596        H  0.93910773  0.55483120  0.73291020     0.08900
H597        H  0.94123407  0.55398850  0.69319744     0.12200
H598        H  0.04857579  0.46171904  0.69384942     0.14000
C599        C  0.00542168  0.00350699  0.80929434    -0.01500
C600        C  0.03380214  0.03177870  0.79787432    -0.09500
C601        C  0.03407085  0.03257358  0.77479866    -0.18300
C602        C  0.00646527  0.00413787  0.76242254     0.04100
C603        C  0.97871655  0.97460023  0.77424105     0.18200
C604        C  0.97785815  0.97515300  0.79740829    -0.19800
C605        C  0.95212666  0.94446954  0.76289806    -0.21000
C606        C  0.95244123  0.94288518  0.73998436    -0.19600
C607        C  0.97861002  0.97205470  0.72781941     0.19600
C608        C  0.00556994  0.00358789  0.73881506     0.01800
C609        C  0.02997203  0.03343379  0.72566115    -0.14300
C610        C  0.02766614  0.03187574  0.70263837    -0.12000
C611        C  0.00188594  0.00005622  0.69199205     0.01300
C612        C  0.97766634  0.97006562  0.70465632    -0.24200
H613        H  0.05534987  0.05392280  0.80685743     0.09300
H614        H  0.05662149  0.05536879  0.76715244     0.12900
H615        H  0.95629299  0.95278653  0.80627356     0.11600
H616        H  0.93114781  0.92170095  0.77182731     0.12800
H617        H  0.93169245  0.91893661  0.73170488     0.11800
H618        H  0.05062967  0.05874424  0.73265085     0.08900
H619        H  0.04672201  0.05527801  0.69307433     0.12200
H620        H  0.95726513  0.94571190  0.69642602     0.14000
C621        C  0.00572312  0.63515854  0.87427202    -0.01500
C622        C  0.04639525  0.65710245  0.87356595    -0.09500
C623        C  0.04848067  0.70312744  0.87400084    -0.18300
C624        C  0.00967218  0.72889851  0.87515125     0.04100
C625        C  0.96855979  0.70638494  0.87593864     0.18200
C626        C  0.96697923  0.66015982  0.87546961    -0.19800
C627        C  0.92909244  0.73007373  0.87717684    -0.21000
C628        C  0.92940050  0.77581818  0.87749852    -0.19600
C629        C  0.96918040  0.79904305  0.87655362     0.19600
C630        C  0.00999017  0.77606585  0.87545691     0.01800
C631        C  0.04913523  0.80140632  0.87460513    -0.14300
C632        C  0.04763397  0.84748247  0.87464008    -0.12000
C633        C  0.00723261  0.86986923  0.87552768     0.01300
C634        C  0.96819540  0.84527750  0.87658860    -0.24200
H635        H  0.07691463  0.63864175  0.87270226     0.09300
H636        H  0.08094334  0.71748893  0.87340882     0.12900
H637        H  0.93530939  0.64362630  0.87607596     0.11600
H638        H  0.89768456  0.71308321  0.87784015     0.12800
H639        H  0.89821880  0.79318202  0.87839393     0.11800
H640        H  0.08141188  0.78666281  0.87382638     0.08900
H641        H  0.07835025  0.86562795  0.87388034     0.12200
H642        H  0.93671893  0.86214608  0.87739522     0.14000
C643        C  0.99713624  0.36966919  0.87579224    -0.01500
C644        C  0.03677042  0.34719120  0.87946690    -0.09500
C645        C  0.03800903  0.30142097  0.88038060    -0.18300
C646        C  0.99937957  0.27606480  0.87750996     0.04100
C647        C  0.95905799  0.29878676  0.87375584     0.18200
C648        C  0.95820319  0.34522734  0.87307181    -0.19800
C649        C  0.92002703  0.27495871  0.87052137    -0.21000
C650        C  0.92029452  0.22901928  0.87067397    -0.19600
C651        C  0.95954763  0.20574320  0.87421152     0.19600
C652        C  0.99955962  0.22901200  0.87793045     0.01800
C653        C  0.03819327  0.20415711  0.88176550    -0.14300
C654        C  0.03744383  0.15833402  0.88128538    -0.12000
C655        C  0.99829255  0.13535385  0.87713328     0.01300
C656        C  0.95921398  0.15929991  0.87387886    -0.24200
H657        H  0.06734086  0.36508482  0.88174263     0.09300
H658        H  0.06996518  0.28706336  0.88318092     0.12900
H659        H  0.92733003  0.36226769  0.87016594     0.11600
H660        H  0.88913241  0.29196365  0.86765875     0.12800
H661        H  0.88960452  0.21157231  0.86790996     0.11800
H662        H  0.06972681  0.21894964  0.88515400     0.08900
H663        H  0.06801057  0.14081348  0.88419339     0.12200
H664        H  0.92861695  0.14186284  0.87081820     0.14000
C665        C  0.49996195  0.50422059  0.30866271    -0.01500
C666        C  0.52480092  0.53525386  0.29696942    -0.09500
C667        C  0.52544230  0.53493665  0.27392111    -0.18300
C668        C  0.50018290  0.50401268  0.26182448     0.04100
C669        C  0.47350945  0.47386592  0.27385423     0.18200
C670        C  0.47454067  0.47347342  0.29703347    -0.19800
C671        C  0.44547207  0.44476421  0.26269069    -0.21000
C672        C  0.44305690  0.44515859  0.23977161    -0.19600
C673        C  0.46995930  0.47338304  0.22742623     0.19600
C674        C  0.49979979  0.50240715  0.23826051     0.01800
C675        C  0.52853359  0.52790071  0.22502755    -0.14300
C676        C  0.52711050  0.52515997  0.20204023    -0.12000
C677        C  0.49641732  0.49792032  0.19151249     0.01300
C678        C  0.46771604  0.47228986  0.20425983    -0.24200
H679        H  0.54427399  0.55958543  0.30572100     0.09300
H680        H  0.54516860  0.55994847  0.26604959     0.12900
H681        H  0.45446257  0.45005596  0.30608668     0.11600
H682        H  0.42474028  0.42200140  0.27176602     0.12800
H683        H  0.42051983  0.42268782  0.23162986     0.11800
H684        H  0.55317038  0.54944480  0.23195316     0.08900
H685        H  0.54976888  0.54495541  0.19240186     0.12200
H686        H  0.44450081  0.45049862  0.19610307     0.14000
C687        C  0.49058653  0.49081750  0.05866542    -0.01500
C688        C  0.45056010  0.49226450  0.04714971    -0.09500
C689        C  0.44974063  0.49161337  0.02408961    -0.18300
C690        C  0.48921996  0.48954916  0.01166801     0.04100
C691        C  0.52974134  0.48837603  0.02342736     0.18200
C692        C  0.53004640  0.48874082  0.04661385    -0.19800
C693        C  0.56983155  0.48729436  0.01199395    -0.21000
C694        C  0.57066107  0.48798930  0.98905768    -0.19600
C695        C  0.53140005  0.48913477  0.97695209     0.19600
C696        C  0.49006283  0.48924445  0.98805792     0.01800
C697        C  0.45143535  0.48909181  0.97501696    -0.14300
C698        C  0.45378170  0.49009317  0.95201885    -0.12000
C699        C  0.49454494  0.49123960  0.94112431     0.01300
C700        C  0.53327823  0.49031785  0.95376007    -0.24200
H701        H  0.41957274  0.49410865  0.05598883     0.09300
H702        H  0.41767340  0.49326719  0.01650426     0.12900
H703        H  0.56128859  0.48771691  0.05528493     0.11600
H704        H  0.60083917  0.48639243  0.02086649     0.12800
H705        H  0.60228178  0.48764508  0.98072415     0.11800
H706        H  0.41884261  0.48810586  0.98206009     0.08900
H707        H  0.42328541  0.49016375  0.94272837     0.12200
H708        H  0.56505160  0.49069895  0.94555994     0.14000
C709        C  0.50191700  0.99961238  0.30938116    -0.01500
C710        C  0.47570911  0.03040279  0.29831655    -0.09500
C711        C  0.47350798  0.03063700  0.27531200    -0.18300
C712        C  0.49849002  0.00051086  0.26260101     0.04100
C713        C  0.52677548  0.97078093  0.27395963     0.18200
C714        C  0.52735000  0.96980002  0.29715302    -0.19800
C715        C  0.55462993  0.94260052  0.26209906    -0.21000
C716        C  0.55520990  0.94348115  0.23914994    -0.19600
C717        C  0.52664135  0.97124063  0.22749949     0.19600
C718        C  0.49699010  0.99931435  0.23904981     0.01800
C719        C  0.46657553  0.02430273  0.22652214    -0.14300
C720        C  0.46636333  0.02216290  0.20349973    -0.12000
C721        C  0.49699269  0.99601113  0.19225914     0.01300
C722        C  0.52713989  0.97071401  0.20431966    -0.24200
H723        H  0.45616271  0.05396508  0.30754988     0.09300
H724        H  0.45268996  0.05537459  0.26795153     0.12900
H725        H  0.54842028  0.94654775  0.30572846     0.11600
H726        H  0.57659732  0.92018023  0.27063627     0.12800
H727        H  0.57764020  0.92174428  0.23044429     0.11800
H728        H  0.44193296  0.04504189  0.23404416     0.08900
H729        H  0.44260695  0.04167878  0.19440544     0.12200
H730        H  0.55032787  0.94974217  0.19561312     0.14000
C731        C  0.50072805  0.99838529  0.94200987    -0.01500
C732        C  0.54095709  0.00182018  0.95323519    -0.09500
C733        C  0.54257468  0.00056735  0.97624169    -0.18300
C734        C  0.50373150  0.99566843  0.98892052     0.04100
C735        C  0.46288025  0.99306172  0.97748380     0.18200
C736        C  0.46174721  0.99436224  0.95430432    -0.19800
C737        C  0.42335533  0.98912945  0.98923951    -0.21000
C738        C  0.42342439  0.98804988  0.01217481    -0.19600
C739        C  0.46305837  0.99035777  0.02393481     0.19600
C740        C  0.50386932  0.99362294  0.01249416     0.01800
C741        C  0.54298604  0.99456132  0.02517734    -0.14300
C742        C  0.54150747  0.99361560  0.04819349    -0.12000
C743        C  0.50115846  0.99168746  0.05942900     0.01300
C744        C  0.46205544  0.98959230  0.04712447    -0.24200
H745        H  0.57156096  0.00538813  0.94419697     0.09300
H746        H  0.57476652  0.00368875  0.98357262     0.12900
H747        H  0.43036480  0.99186738  0.94583346     0.11600
H748        H  0.39209994  0.98713659  0.98063293     0.12800
H749        H  0.39221416  0.98534062  0.02078217     0.11800
H750        H  0.57530707  0.99595264  0.01784430     0.08900
H751        H  0.57229114  0.99476234  0.05722740     0.12200
H752        H  0.43062837  0.98758202  0.05559336     0.14000
C753        C  0.49243526  0.62654687  0.12489215    -0.01500
C754        C  0.45256525  0.64958120  0.12656346    -0.09500
C755        C  0.45191084  0.69553700  0.12724164    -0.18300
C756        C  0.49140955  0.72025260  0.12623855     0.04100
C757        C  0.53180447  0.69677168  0.12440168     0.18200
C758        C  0.53197223  0.65046296  0.12380359    -0.19800
C759        C  0.57181701  0.71962786  0.12312765    -0.21000
C760        C  0.57262116  0.76545989  0.12350087    -0.19600
C761        C  0.53345216  0.78958176  0.12528424     0.19600
C762        C  0.49227752  0.76733312  0.12683772     0.01800
C763        C  0.45376221  0.79322546  0.12887615    -0.14300
C764        C  0.45596909  0.83910070  0.12893696    -0.12000
C765        C  0.49648588  0.86096455  0.12705908     0.01300
C766        C  0.53519962  0.83591279  0.12541551    -0.24200
H767        H  0.42152313  0.63202082  0.12744149     0.09300
H768        H  0.41986768  0.71061593  0.12849003     0.12900
H769        H  0.56307804  0.63304405  0.12249045     0.11600
H770        H  0.60273244  0.70192362  0.12172891     0.12800
H771        H  0.60412697  0.78216297  0.12235832     0.11800
H772        H  0.42132044  0.77915224  0.13043228     0.08900
H773        H  0.42552773  0.85753455  0.13042708     0.12200
H774        H  0.56677510  0.85244218  0.12404361     0.14000
C775        C  0.49755313  0.12650962  0.12621248    -0.01500
C776        C  0.45737933  0.14834870  0.12955530    -0.09500
C777        C  0.45528161  0.19419528  0.13018793    -0.18300
C778        C  0.49352804  0.22014953  0.12734448     0.04100
C779        C  0.53435506  0.19794227  0.12410622     0.18200
C780        C  0.53603033  0.15158352  0.12362162    -0.19800
C781        C  0.57322571  0.22215304  0.12129723    -0.21000
C782        C  0.57245301  0.26799966  0.12152304    -0.19600
C783        C  0.53276977  0.29081135  0.12448750     0.19600
C784        C  0.49269454  0.26724794  0.12747488     0.01800
C785        C  0.45350861  0.29191932  0.13026216    -0.14300
C786        C  0.45407637  0.33787496  0.12987909    -0.12000
C787        C  0.49359151  0.36097810  0.12684315     0.01300
C788        C  0.53289487  0.33714508  0.12430183    -0.24200
H789        H  0.42715377  0.12988837  0.13183376     0.09300
H790        H  0.42309837  0.20820311  0.13291974     0.12900
H791        H  0.56731657  0.13504964  0.12106304     0.11600
H792        H  0.60446644  0.20550548  0.11884810     0.12800
H793        H  0.60312161  0.28576137  0.11923868     0.11800
H794        H  0.42172327  0.27680045  0.13264339     0.08900
H795        H  0.42324333  0.35539192  0.13199297     0.12200
H796        H  0.56369909  0.35465118  0.12191977     0.14000
C797        C  0.99731062  0.50673544  0.30856149    -0.01500
C798        C  0.96687398  0.47983640  0.29770300    -0.09500
C799        C  0.96515959  0.47859093  0.27472015    -0.18300
C800        C  0.99485896  0.50360602  0.26179688     0.04100
C801        C  0.02640697  0.53022424  0.27299210     0.18200
C802        C  0.02670620  0.53231504  0.29619202    -0.19800
C803        C  0.05783395  0.55399434  0.26097142    -0.21000
C804        C  0.05892544  0.55158658  0.23804515    -0.19600
C805        C  0.02789817  0.52627403  0.22653678     0.19600
C806        C  0.99485523  0.50258156  0.23821663     0.01800
C807        C  0.96304803  0.47919974  0.22575174    -0.14300
C808        C  0.96427817  0.47910081  0.20272258    -0.12000
C809        C  0.99756606  0.50148522  0.19135329     0.01300
C810        C  0.02943984  0.52483740  0.20335641    -0.24200
H811        H  0.94391717  0.45991491  0.30710069     0.09300
H812        H  0.94081130  0.45699357  0.26760923     0.12900
H813        H  0.05067775  0.55276877  0.30466445     0.11600
H814        H  0.08212345  0.57413393  0.26937478     0.12800
H815        H  0.08400933  0.56996821  0.22923590     0.11800
H816        H  0.93633855  0.46124691  0.23326142     0.08900
H817        H  0.93923970  0.46100845  0.19374056     0.12200
H818        H  0.05487757  0.54286589  0.19459468     0.14000
C819        C  0.00410064  0.50376837  0.94081287    -0.01500
C820        C  0.04432921  0.50569461  0.95212391    -0.09500
C821        C  0.04553206  0.50658790  0.97517602    -0.18300
C822        C  0.00625222  0.50547526  0.98778743     0.04100
C823        C  0.96555397  0.50311232  0.97622319     0.18200
C824        C  0.96484412  0.50245700  0.95304725    -0.19800
C825        C  0.92570697  0.50127888  0.98783756    -0.21000
C826        C  0.92531170  0.50156540  0.01077526    -0.19600
C827        C  0.96473947  0.50403100  0.02269636     0.19600
C828        C  0.00580444  0.50633268  0.01139902     0.01800
C829        C  0.04455943  0.50940914  0.02426176    -0.14300
C830        C  0.04263381  0.50945454  0.04728027    -0.12000
C831        C  0.00218028  0.50650889  0.05837226     0.01300
C832        C  0.96329442  0.50408025  0.04590177    -0.24200
H833        H  0.07517649  0.50663156  0.94312798     0.09300
H834        H  0.07776137  0.50795516  0.98259774     0.12900
H835        H  0.93346210  0.50076807  0.94452758     0.11600
H836        H  0.89457541  0.49941609  0.97911041     0.12800
H837        H  0.89389260  0.49987879  0.01925662     0.11800
H838        H  0.07693693  0.51185522  0.01706682     0.08900
H839        H  0.07321589  0.51167050  0.05643388     0.12200
H840        H  0.93174155  0.50197192  0.05424701     0.14000
C841        C  0.00972275  0.00279802  0.19200786    -0.01500
C842        C  0.03404219  0.03495852  0.20316938    -0.09500
C843        C  0.03434444  0.03626698  0.22621153    -0.18300
C844        C  0.01104560  0.00449479  0.23871848     0.04100
C845        C  0.98895959  0.97016779  0.22714299     0.18200
C846        C  0.98748331  0.97033242  0.20399473    -0.19800
C847        C  0.96867975  0.93582383  0.23873273    -0.21000
C848        C  0.96973923  0.93486736  0.26165888    -0.19600
C849        C  0.98936371  0.96925100  0.27354168     0.19600
C850        C  0.00931995  0.00516672  0.26225855     0.01800
C851        C  0.02564328  0.04067275  0.27501848    -0.14300
C852        C  0.02326923  0.03989418  0.29803626    -0.12000
C853        C  0.00543410  0.00347399  0.30905305     0.01300
C854        C  0.98856507  0.96824501  0.29669285    -0.24200
H855        H  0.05202545  0.05980687  0.19400530     0.09300
H856        H  0.05368102  0.06199067  0.23377480     0.12900
H857        H  0.96962897  0.94474577  0.19522645     0.11600
H858        H  0.95232687  0.90925197  0.22999835     0.12800
H859        H  0.95424908  0.90752031  0.27016618     0.11800
H860        H  0.03949285  0.06991120  0.26765956     0.08900
H861        H  0.03608340  0.06767615  0.30727534     0.12200
H862        H  0.97384287  0.94035552  0.30512584     0.14000
C863        C  0.99831830  0.00268408  0.94207236    -0.01500
C864        C  0.95802658  0.00708226  0.95318252    -0.09500
C865        C  0.95630096  0.00766088  0.97620944    -0.18300
C866        C  0.99509061  0.00364033  0.98899373     0.04100
C867        C  0.03590185  0.99930464  0.97761986     0.18200
C868        C  0.03714620  0.99895600  0.95445828    -0.19800
C869        C  0.07532945  0.99522863  0.98940396    -0.21000
C870        C  0.07520653  0.99524855  0.01231555    -0.19600
C871        C  0.03565697  0.99935736  0.02401914     0.19600
C872        C  0.99495739  0.00364744  0.01259427     0.01800
C873        C  0.95603008  0.00761713  0.02533445    -0.14300
C874        C  0.95759071  0.00731355  0.04838402    -0.12000
C875        C  0.99784038  0.00313871  0.05952211     0.01300
C876        C  0.03671205  0.99915997  0.04716028    -0.24200
H877        H  0.92751562  0.01027238  0.94404172     0.09300
H878        H  0.92408670  0.01125287  0.98347066     0.12900
H879        H  0.06854511  0.99554821  0.94606998     0.11600
H880        H  0.10652821  0.99193050  0.98083374     0.12800
H881        H  0.10632009  0.99197615  0.02095260     0.11800
H882        H  0.92385105  0.01098577  0.01802098     0.08900
H883        H  0.92704204  0.01048005  0.05750930     0.12200
H884        H  0.06809427  0.99583582  0.05555706     0.14000
C885        C  0.99458267  0.63586357  0.12692395    -0.01500
C886        C  0.95444324  0.65852483  0.12844611    -0.09500
C887        C  0.95337675  0.70461667  0.12862396    -0.18300
C888        C  0.99270189  0.72961742  0.12720409     0.04100
C889        C  0.03329625  0.70632362  0.12605729     0.18200
C890        C  0.03384392  0.66012835  0.12592072    -0.19800
C891        C  0.07327898  0.72918254  0.12495666    -0.21000
C892        C  0.07396174  0.77492524  0.12491178    -0.19600
C893        C  0.03465909  0.79894658  0.12579897     0.19600
C894        C  0.99338482  0.77675184  0.12686649     0.01800
C895        C  0.95472629  0.80277668  0.12737917    -0.14300
C896        C  0.95708211  0.84875199  0.12704527    -0.12000
C897        C  0.99788315  0.87042052  0.12621124     0.01300
C898        C  0.03652276  0.84517699  0.12555521    -0.24200
H899        H  0.92362723  0.64059553  0.12945158     0.09300
H900        H  0.92129342  0.71963647  0.12988553     0.12900
H901        H  0.06516813  0.64303455  0.12485670     0.11600
H902        H  0.10430956  0.71153492  0.12412396     0.12800
H903        H  0.10549760  0.79164443  0.12407019     0.11800
H904        H  0.92216108  0.78865949  0.12794205     0.08900
H905        H  0.92663980  0.86739763  0.12747245     0.12200
H906        H  0.06828576  0.86150938  0.12481819     0.14000
C907        C  0.00767981  0.13592828  0.12546668    -0.01500
C908        C  0.04793477  0.15852518  0.12453830    -0.09500
C909        C  0.04912551  0.20457151  0.12388597    -0.18300
C910        C  0.00980720  0.22968246  0.12415090     0.04100
C911        C  0.96911976  0.20654228  0.12542944     0.18200
C912        C  0.96842921  0.16030542  0.12596674    -0.19800
C913        C  0.92923027  0.22962561  0.12625913    -0.21000
C914        C  0.92876997  0.27539048  0.12601070    -0.19600
C915        C  0.96815468  0.29921168  0.12463267     0.19600
C916        C  0.00927586  0.27680915  0.12342052     0.01800
C917        C  0.04792521  0.30263621  0.12150607    -0.14300
C918        C  0.04580750  0.34865672  0.12142487    -0.12000
C919        C  0.00524757  0.37052383  0.12315822     0.01300
C920        C  0.96653805  0.34545082  0.12453935    -0.24200
H921        H  0.07879235  0.14056428  0.12428663     0.09300
H922        H  0.08133572  0.21949038  0.12332423     0.12900
H923        H  0.93704072  0.14327854  0.12678614     0.11600
H924        H  0.89812628  0.21214870  0.12726841     0.12800
H925        H  0.89732782  0.29228760  0.12686755     0.11800
H926        H  0.08028917  0.28831356  0.12000869     0.08900
H927        H  0.07620928  0.36718336  0.12005188     0.12200
H928        H  0.93490685  0.36193377  0.12574372     0.14000
loop_ 
_geom_bond_atom_site_label_1 
_geom_bond_atom_site_label_2 
_geom_bond_distance 
_geom_bond_site_symmetry_2 
_ccdc_geom_bond_type 
O1           Ni9   1.918       .  S
O1           C11   1.282       .  A
O2           Ni9   1.921   1_565  S
O2           C12   1.283       .  A
O3           Ni9   1.913       .  S
O3           C13   1.281   1_455  A
O4           Ni9   1.914       .  S
O4           C14   1.279       .  A
O5          Ni10   1.917       .  S
O5           C14   1.281   1_655  A
O6          Ni10   1.919       .  S
O6           C13   1.282       .  A
O7          Ni10   1.910   1_565  S
O7           C12   1.280   1_655  A
O8          Ni10   1.915       .  S
O8           C11   1.282   1_655  A
Ni9         Ni10   2.388   1_455  S
C11         C907   1.482       .  S
C12         C897   1.481   1_455  S
C13         C875   1.481       .  S
C14         C841   1.466       .  S
O15         Ni23   1.922       .  S
O15          C25   1.283   1_655  A
O16         Ni23   1.919       .  S
O16          C26   1.282       .  A
O17         Ni23   1.920       .  S
O17          C27   1.282       .  A
O18         Ni23   1.916       .  S
O18          C28   1.282   1_655  A
O19         Ni24   1.917       .  S
O19          C28   1.281       .  A
O20         Ni24   1.910       .  S
O20          C27   1.281   1_455  A
O21         Ni24   1.917       .  S
O21          C26   1.281   1_455  A
O22         Ni24   1.915       .  S
O22          C25   1.282       .  A
Ni23        Ni24   2.387   1_655  S
C25         C831   1.484       .  S
C26         C809   1.476       .  S
C27         C885   1.480       .  S
C28         C919   1.481       .  S
O29         Ni37   1.905   1_545  S
O29          C39   1.280       .  A
O30         Ni37   1.908       .  S
O30          C40   1.280       .  A
O31         Ni37   1.919       .  S
O31          C41   1.282       .  A
O32         Ni37   1.921       .  S
O32          C42   1.283       .  A
O33         Ni38   1.914       .  S
O33          C42   1.281       .  A
O34         Ni38   1.915       .  S
O34          C41   1.280       .  A
O35         Ni38   1.922       .  S
O35          C40   1.283       .  A
O36         Ni38   1.927   1_545  S
O36          C39   1.284       .  A
Ni37        Ni38   2.387       .  S
C39         C775   1.481       .  S
C40         C765   1.480       .  S
C41         C721   1.472       .  S
C42         C743   1.483       .  S
O43         Ni51   1.913       .  S
O43          C53   1.281       .  A
O44         Ni51   1.917       .  S
O44          C54   1.282       .  A
O45         Ni51   1.921       .  S
O45          C55   1.283       .  A
O46         Ni51   1.920       .  S
O46          C56   1.281       .  A
O47         Ni52   1.915       .  S
O47          C56   1.281       .  A
O48         Ni52   1.916       .  S
O48          C55   1.281       .  A
O49         Ni52   1.915       .  S
O49          C54   1.281       .  A
O50         Ni52   1.918       .  S
O50          C53   1.282       .  A
Ni51        Ni52   2.387       .  S
C53         C787   1.480       .  S
C54         C753   1.481       .  S
C55         C687   1.484       .  S
C56         C677   1.473       .  S
O57         Ni65   1.917   1_565  S
O57          C67   1.282   1_655  A
O58         Ni65   1.922       .  S
O58          C68   1.282       .  A
O59         Ni65   1.916       .  S
O59          C69   1.281   1_655  A
O60         Ni65   1.915       .  S
O60          C70   1.281       .  A
O61         Ni66   1.918       .  S
O61          C70   1.282   1_455  A
O62         Ni66   1.920       .  S
O62          C69   1.281       .  A
O63         Ni66   1.908       .  S
O63          C68   1.281   1_455  A
O64         Ni66   1.916   1_565  S
O64          C67   1.281       .  A
Ni65        Ni66   2.387   1_655  S
C67         C633   1.482       .  S
C68         C655   1.480       .  S
C69         C599   1.473       .  S
C70         C863   1.481       .  S
O71         Ni79   1.920       .  S
O71          C81   1.283   1_655  A
O72         Ni79   1.925       .  S
O72          C82   1.283       .  A
O73         Ni79   1.914       .  S
O73          C83   1.281   1_655  A
O74         Ni79   1.914       .  S
O74          C84   1.280       .  A
O75         Ni80   1.920       .  S
O75          C84   1.282   1_455  A
O76         Ni80   1.920       .  S
O76          C83   1.283       .  A
O77         Ni80   1.906       .  S
O77          C82   1.280   1_455  A
O78         Ni80   1.912       .  S
O78          C81   1.280       .  A
Ni79        Ni80   2.387   1_655  S
C81         C621   1.482       .  S
C82         C643   1.481       .  S
C83         C819   1.483       .  S
C84         C577   1.475       .  S
O85         Ni93   1.923       .  S
O85          C95   1.283       .  A
O86         Ni93   1.918   1_545  S
O86          C96   1.282       .  A
O87         Ni93   1.915       .  S
O87          C97   1.282       .  A
O88         Ni93   1.914       .  S
O88          C98   1.281       .  A
O89         Ni94   1.916       .  S
O89          C98   1.281       .  A
O90         Ni94   1.918       .  S
O90          C97   1.282       .  A
O91         Ni94   1.912   1_545  S
O91          C96   1.281       .  A
O92         Ni94   1.909       .  S
O92          C95   1.281       .  A
Ni93        Ni94   2.387       .  S
C95         C533   1.481       .  S
C96         C555   1.480       .  S
C97         C731   1.482       .  S
C98         C511   1.474       .  S
O99        Ni107   1.922       .  S
O99         C109   1.283       .  A
O100       Ni107   1.919       .  S
O100        C110   1.282       .  A
O101       Ni107   1.923       .  S
O101        C111   1.283       .  A
O102       Ni107   1.919       .  S
O102        C112   1.282       .  A
O103       Ni108   1.912       .  S
O103        C112   1.280       .  A
O104       Ni108   1.914       .  S
O104        C111   1.281       .  A
O105       Ni108   1.913       .  S
O105        C110   1.281       .  A
O106       Ni108   1.908       .  S
O106        C109   1.280       .  A
Ni107      Ni108   2.387       .  S
C109        C567   1.480       .  S
C110        C545   1.481       .  S
C111        C699   1.484       .  S
C112        C489   1.473       .  S
O113       Ni121   1.918       .  S
O113        C123   1.282   1_565  A
O114       Ni121   1.915   1_655  S
O114        C124   1.282       .  A
O115       Ni121   1.913       .  S
O115        C125   1.281   1_565  A
O116       Ni121   1.914       .  S
O116        C126   1.281       .  A
O117       Ni122   1.918       .  S
O117        C126   1.282   1_545  A
O118       Ni122   1.919       .  S
O118        C125   1.282       .  A
O119       Ni122   1.917   1_655  S
O119        C124   1.282   1_545  A
O120       Ni122   1.914       .  S
O120        C123   1.281       .  A
Ni121      Ni122   2.387   1_565  S
C123        C479   1.481       .  S
C124        C445   1.481       .  S
C125        C853   1.476       .  S
C126        C435   1.481       .  S
O127       Ni135   1.915       .  S
O127        C137   1.281       .  A
O128       Ni135   1.916       .  S
O128        C138   1.281       .  A
O129       Ni135   1.910       .  S
O129        C139   1.280       .  A
O130       Ni135   1.912   1_455  S
O130        C140   1.281       .  A
O131       Ni136   1.922   1_455  S
O131        C140   1.282       .  A
O132       Ni136   1.926       .  S
O132        C139   1.284       .  A
O133       Ni136   1.912       .  S
O133        C138   1.281       .  A
O134       Ni136   1.918       .  S
O134        C137   1.280       .  A
Ni135      Ni136   2.387       .  S
C137        C797   1.470       .  S
C138        C369   1.479       .  S
C139        C379   1.483       .  S
C140        C413   1.478       .  S
O141       Ni149   1.914       .  S
O141        C151   1.281       .  A
O142       Ni149   1.920       .  S
O142        C152   1.282   1_565  A
O143       Ni149   1.919       .  S
O143        C153   1.281       .  A
O144       Ni149   1.919       .  S
O144        C154   1.282       .  A
O145       Ni150   1.913       .  S
O145        C154   1.281   1_545  A
O146       Ni150   1.915       .  S
O146        C153   1.281   1_545  A
O147       Ni150   1.913       .  S
O147        C152   1.281       .  A
O148       Ni150   1.917       .  S
O148        C151   1.282   1_545  A
Ni149      Ni150   2.387   1_565  S
C151        C457   1.480       .  S
C152        C467   1.481       .  S
C153        C709   1.472       .  S
C154        C335   1.481       .  S
O155       Ni163   1.920       .  S
O155        C165   1.282       .  A
O156       Ni163   1.911       .  S
O156        C166   1.281       .  A
O157       Ni163   1.919       .  S
O157        C167   1.281       .  A
O158       Ni163   1.920       .  S
O158        C168   1.282       .  A
O159       Ni164   1.913       .  S
O159        C168   1.281       .  A
O160       Ni164   1.916       .  S
O160        C167   1.281       .  A
O161       Ni164   1.922       .  S
O161        C166   1.282       .  A
O162       Ni164   1.917       .  S
O162        C165   1.282       .  A
Ni163      Ni164   2.388       .  S
C165        C391   1.482       .  S
C166        C401   1.477       .  S
C167        C665   1.473       .  S
C168        C325   1.480       .  S
O169       Ni177   1.928       .  S
O169        C179   1.284   1_545  A
O170       Ni177   1.923   1_455  S
O170        C180   1.283   1_545  A
O171       Ni177   1.912       .  S
O171        C181   1.281   1_645  A
O172       Ni177   1.916   1_455  S
O172        C182   1.281   1_545  A
O173       Ni178   1.920   1_655  S
O173        C182   1.282   1_655  A
O174       Ni178   1.920       .  S
O174        C181   1.282       .  A
O175       Ni178   1.908       .  S
O175        C180   1.281       .  A
O176       Ni178   1.906   1_655  S
O176        C179   1.280       .  A
Ni177      Ni178   2.387   1_645  S
C179        C269   1.482       .  S
C180        C303   1.481       .  S
C181        C423   1.481       .  S
C182        C611   1.474   1_565  S
O183       Ni191   1.918       .  S
O183        C193   1.281       .  A
O184       Ni191   1.918       .  S
O184        C194   1.281       .  A
O185       Ni191   1.924       .  S
O185        C195   1.283       .  A
O186       Ni191   1.920   1_455  S
O186        C196   1.282       .  A
O187       Ni192   1.912   1_455  S
O187        C196   1.281       .  A
O188       Ni192   1.908       .  S
O188        C195   1.280       .  A
O189       Ni192   1.911       .  S
O189        C194   1.279       .  A
O190       Ni192   1.909       .  S
O190        C193   1.281       .  A
Ni191      Ni192   2.388       .  S
C193        C357   1.478       .  S
C194        C589   1.466       .  S
C195        C225   1.481       .  S
C196        C247   1.481       .  S
O197       Ni205   1.922       .  S
O197        C207   1.282   1_545  A
O198       Ni205   1.916       .  S
O198        C208   1.282   1_545  A
O199       Ni205   1.911       .  S
O199        C209   1.281   1_545  A
O200       Ni205   1.914       .  S
O200        C210   1.280   1_545  A
O201       Ni206   1.917       .  S
O201        C210   1.281       .  A
O202       Ni206   1.920       .  S
O202        C209   1.282       .  A
O203       Ni206   1.916       .  S
O203        C208   1.282       .  A
O204       Ni206   1.911       .  S
O204        C207   1.281       .  A
Ni205      Ni206   2.388   1_545  S
C207        C291   1.481       .  S
C208        C281   1.480       .  S
C209        C347   1.481       .  S
C210        C523   1.467       .  S
O211       Ni219   1.917       .  S
O211        C221   1.281       .  A
O212       Ni219   1.923       .  S
O212        C222   1.283       .  A
O213       Ni219   1.919       .  S
O213        C223   1.281       .  A
O214       Ni219   1.919       .  S
O214        C224   1.282       .  A
O215       Ni220   1.912       .  S
O215        C224   1.281       .  A
O216       Ni220   1.912       .  S
O216        C223   1.280       .  A
O217       Ni220   1.910       .  S
O217        C222   1.280       .  A
O218       Ni220   1.914       .  S
O218        C221   1.282       .  A
Ni219      Ni220   2.388       .  S
C221        C259   1.481       .  S
C222        C237   1.481       .  S
C223        C501   1.468       .  S
C224        C313   1.479       .  S
C225        C226   1.401       .  A
C225        C230   1.402       .  A
C226        C227   1.393       .  A
C226        H239   1.083       .  S
C227        C228   1.413       .  A
C227        H240   1.077       .  S
C228        C234   1.429       .  A
C228        C229   1.423       .  A
C229        C231   1.399       .  A
C229        C230   1.406       .  A
C230        H241   1.084       .  S
C231        C232   1.390       .  A
C231        H242   1.084       .  S
C232        C233   1.400       .  A
C232        H243   1.084       .  S
C233        C234   1.422       .  A
C233        C238   1.406       .  A
C234        C235   1.414       .  A
C235        C236   1.394       .  A
C235        H244   1.077       .  S
C236        C237   1.401       .  A
C236        H245   1.083       .  S
C237        C238   1.402       .  A
C238        H246   1.084       .  S
C247        C248   1.400       .  A
C247        C252   1.404       .  A
C248        C249   1.392       .  A
C248        H261   1.083       .  S
C249        C250   1.413       .  A
C249        H262   1.077       .  S
C250        C256   1.428       .  A
C250        C251   1.422       .  A
C251        C253   1.400       .  A
C251        C252   1.407       .  A
C252        H263   1.084       .  S
C253        C254   1.392       .  A
C253        H264   1.084       .  S
C254        C255   1.400       .  A
C254        H265   1.084       .  S
C255        C256   1.422       .  A
C255        C260   1.406       .  A
C256        C257   1.413       .  A
C257        C258   1.392       .  A
C257        H266   1.077       .  S
C258        C259   1.400       .  A
C258        H267   1.083       .  S
C259        C260   1.404       .  A
C260        H268   1.084       .  S
C269        C270   1.402       .  A
C269        C274   1.402   1_565  A
C270        C271   1.394       .  A
C270        H283   1.083       .  S
C271        C272   1.413       .  A
C271        H284   1.077       .  S
C272        C278   1.429       .  A
C272        C273   1.423   1_565  A
C273        C275   1.399       .  A
C273        C274   1.407       .  A
C274        H285   1.084       .  S
C275        C276   1.390       .  A
C275        H286   1.084       .  S
C276        C277   1.400       .  A
C276        H287   1.084       .  S
C277        C278   1.421   1_545  A
C277        C282   1.404       .  A
C278        C279   1.415       .  A
C279        C280   1.396       .  A
C279        H288   1.077       .  S
C280        C281   1.400       .  A
C280        H289   1.083       .  S
C281        C282   1.402   1_565  A
C282        H290   1.084       .  S
C291        C292   1.400       .  A
C291        C296   1.403   1_565  A
C292        C293   1.393       .  A
C292        H305   1.083       .  S
C293        C294   1.414       .  A
C293        H306   1.077       .  S
C294        C300   1.428       .  A
C294        C295   1.422   1_565  A
C295        C297   1.400       .  A
C295        C296   1.407       .  A
C296        H307   1.084       .  S
C297        C298   1.392       .  A
C297        H308   1.084       .  S
C298        C299   1.400       .  A
C298        H309   1.084       .  S
C299        C300   1.422   1_545  A
C299        C304   1.407       .  A
C300        C301   1.413       .  A
C301        C302   1.392       .  A
C301        H310   1.077       .  S
C302        C303   1.401       .  A
C302        H311   1.083       .  S
C303        C304   1.403   1_565  A
C304        H312   1.084       .  S
C313        C314   1.400       .  A
C313        C318   1.402       .  A
C314        C315   1.394       .  A
C314        H327   1.083       .  S
C315        C316   1.414       .  A
C315        H328   1.077       .  S
C316        C322   1.429       .  A
C316        C317   1.422       .  A
C317        C319   1.400       .  A
C317        C318   1.406       .  A
C318        H329   1.084       .  S
C319        C320   1.391       .  A
C319        H330   1.084       .  S
C320        C321   1.400       .  A
C320        H331   1.084       .  S
C321        C322   1.422       .  A
C321        C326   1.407       .  A
C322        C323   1.414       .  A
C323        C324   1.393       .  A
C323        H332   1.077       .  S
C324        C325   1.400       .  A
C324        H333   1.083       .  S
C325        C326   1.403       .  A
C326        H334   1.084       .  S
C335        C336   1.401   1_565  A
C335        C340   1.403       .  A
C336        C337   1.394       .  A
C336        H349   1.083       .  S
C337        C338   1.414   1_545  A
C337        H350   1.077       .  S
C338        C344   1.429       .  A
C338        C339   1.422       .  A
C339        C341   1.400       .  A
C339        C340   1.406       .  A
C340        H351   1.084       .  S
C341        C342   1.391       .  A
C341        H352   1.084       .  S
C342        C343   1.400       .  A
C342        H353   1.084       .  S
C343        C344   1.422       .  A
C343        C348   1.406       .  A
C344        C345   1.413   1_565  A
C345        C346   1.393       .  A
C345        H354   1.077       .  S
C346        C347   1.401   1_545  A
C346        H355   1.083       .  S
C347        C348   1.403       .  A
C348        H356   1.084       .  S
C357        C358   1.400       .  A
C357        C362   1.403   1_655  A
C358        C359   1.391       .  A
C358        H371   1.083       .  S
C359        C360   1.413       .  A
C359        H372   1.076       .  S
C360        C366   1.427       .  A
C360        C361   1.422   1_655  A
C361        C363   1.400       .  A
C361        C362   1.406       .  A
C362        H373   1.084       .  S
C363        C364   1.391       .  A
C363        H374   1.084       .  S
C364        C365   1.400       .  A
C364        H375   1.084       .  S
C365        C366   1.422   1_455  A
C365        C370   1.406       .  A
C366        C367   1.414       .  A
C367        C368   1.391       .  A
C367        H376   1.076       .  S
C368        C369   1.399       .  A
C368        H377   1.083       .  S
C369        C370   1.403   1_655  A
C370        H378   1.084       .  S
C379        C380   1.402       .  A
C379        C384   1.402       .  A
C380        C381   1.396       .  A
C380        H393   1.083       .  S
C381        C382   1.414       .  A
C381        H394   1.077       .  S
C382        C388   1.431       .  A
C382        C383   1.423       .  A
C383        C385   1.399       .  A
C383        C384   1.406       .  A
C384        H395   1.084       .  S
C385        C386   1.390       .  A
C385        H396   1.084       .  S
C386        C387   1.400       .  A
C386        H397   1.084       .  S
C387        C388   1.422       .  A
C387        C392   1.405       .  A
C388        C389   1.415       .  A
C389        C390   1.397       .  A
C389        H398   1.077       .  S
C390        C391   1.401       .  A
C390        H399   1.083       .  S
C391        C392   1.403       .  A
C392        H400   1.084       .  S
C401        C402   1.399       .  A
C401        C406   1.402       .  A
C402        C403   1.392       .  A
C402        H415   1.084       .  S
C403        C404   1.414       .  A
C403        H416   1.076       .  S
C404        C410   1.428       .  A
C404        C405   1.422       .  A
C405        C407   1.400       .  A
C405        C406   1.408       .  A
C406        H417   1.084       .  S
C407        C408   1.392       .  A
C407        H418   1.084       .  S
C408        C409   1.401       .  A
C408        H419   1.084       .  S
C409        C410   1.423       .  A
C409        C414   1.408       .  A
C410        C411   1.413       .  A
C411        C412   1.392       .  A
C411        H420   1.076       .  S
C412        C413   1.399       .  A
C412        H421   1.083       .  S
C413        C414   1.403       .  A
C414        H422   1.084       .  S
C423        C424   1.401       .  A
C423        C428   1.402   1_465  A
C424        C425   1.397       .  A
C424        H437   1.083       .  S
C425        C426   1.416       .  A
C425        H438   1.077       .  S
C426        C432   1.430       .  A
C426        C427   1.422   1_465  A
C427        C429   1.399       .  A
C427        C428   1.403       .  A
C428        H439   1.084       .  S
C429        C430   1.388       .  A
C429        H440   1.084       .  S
C430        C431   1.399       .  A
C430        H441   1.084       .  S
C431        C432   1.423   1_645  A
C431        C436   1.404       .  A
C432        C433   1.414       .  A
C433        C434   1.396       .  A
C433        H442   1.077       .  S
C434        C435   1.402       .  A
C434        H443   1.083       .  S
C435        C436   1.401   1_465  A
C436        H444   1.084       .  S
C445        C446   1.401       .  A
C445        C450   1.403   1_565  A
C446        C447   1.395       .  A
C446        H459   1.083       .  S
C447        C448   1.414       .  A
C447        H460   1.077       .  S
C448        C454   1.429       .  A
C448        C449   1.422   1_565  A
C449        C451   1.400       .  A
C449        C450   1.405       .  A
C450        H461   1.084       .  S
C451        C452   1.390       .  A
C451        H462   1.084       .  S
C452        C453   1.399       .  A
C452        H463   1.084       .  S
C453        C454   1.422   1_545  A
C453        C458   1.405       .  A
C454        C455   1.414       .  A
C455        C456   1.395       .  A
C455        H464   1.077       .  S
C456        C457   1.400       .  A
C456        H465   1.083       .  S
C457        C458   1.402   1_565  A
C458        H466   1.084       .  S
C467        C468   1.401       .  A
C467        C472   1.402   1_545  A
C468        C469   1.395       .  A
C468        H481   1.083       .  S
C469        C470   1.414       .  A
C469        H482   1.077       .  S
C470        C476   1.429       .  A
C470        C471   1.422   1_545  A
C471        C473   1.399       .  A
C471        C472   1.405       .  A
C472        H483   1.084       .  S
C473        C474   1.389       .  A
C473        H484   1.084       .  S
C474        C475   1.399       .  A
C474        H485   1.084       .  S
C475        C476   1.422   1_565  A
C475        C480   1.404       .  A
C476        C477   1.415       .  A
C477        C478   1.395       .  A
C477        H486   1.077       .  S
C478        C479   1.401       .  A
C478        H487   1.083       .  S
C479        C480   1.402   1_545  A
C480        H488   1.084       .  S
C489        C490   1.398       .  A
C489        C494   1.400       .  A
C490        C491   1.396       .  A
C490        H503   1.083       .  S
C491        C492   1.415       .  A
C491        H504   1.078       .  S
C492        C498   1.427       .  A
C492        C493   1.422       .  A
C493        C495   1.400       .  A
C493        C494   1.403       .  A
C494        H505   1.085       .  S
C495        C496   1.390       .  A
C495        H506   1.084       .  S
C496        C497   1.399       .  A
C496        H507   1.084       .  S
C497        C498   1.423       .  A
C497        C502   1.404       .  A
C498        C499   1.415       .  A
C499        C500   1.395       .  A
C499        H508   1.078       .  S
C500        C501   1.398       .  A
C500        H509   1.084       .  S
C501        C502   1.398       .  A
C502        H510   1.085       .  S
C511        C512   1.399       .  A
C511        C516   1.401   1_565  A
C512        C513   1.395       .  A
C512        H525   1.083       .  S
C513        C514   1.414       .  A
C513        H526   1.077       .  S
C514        C520   1.427       .  A
C514        C515   1.422   1_565  A
C515        C517   1.400       .  A
C515        C516   1.404       .  A
C516        H527   1.085       .  S
C517        C518   1.390       .  A
C517        H528   1.084       .  S
C518        C519   1.399       .  A
C518        H529   1.084       .  S
C519        C520   1.423   1_545  A
C519        C524   1.404       .  A
C520        C521   1.415       .  A
C521        C522   1.395       .  A
C521        H530   1.077       .  S
C522        C523   1.397       .  A
C522        H531   1.084       .  S
C523        C524   1.398   1_565  A
C524        H532   1.085       .  S
C533        C534   1.401       .  A
C533        C538   1.403       .  A
C534        C535   1.393       .  A
C534        H547   1.083       .  S
C535        C536   1.414       .  A
C535        H548   1.075       .  S
C536        C542   1.429       .  A
C536        C537   1.422       .  A
C537        C539   1.400       .  A
C537        C538   1.407       .  A
C538        H549   1.084       .  S
C539        C540   1.391       .  A
C539        H550   1.084       .  S
C540        C541   1.400       .  A
C540        H551   1.084       .  S
C541        C542   1.421       .  A
C541        C546   1.406       .  A
C542        C543   1.414       .  A
C543        C544   1.394       .  A
C543        H552   1.075       .  S
C544        C545   1.400       .  A
C544        H553   1.083       .  S
C545        C546   1.403       .  A
C546        H554   1.084       .  S
C555        C556   1.401       .  A
C555        C560   1.402       .  A
C556        C557   1.394       .  A
C556        H569   1.083       .  S
C557        C558   1.414       .  A
C557        H570   1.077       .  S
C558        C564   1.428       .  A
C558        C559   1.422       .  A
C559        C561   1.400       .  A
C559        C560   1.405       .  A
C560        H571   1.084       .  S
C561        C562   1.390       .  A
C561        H572   1.084       .  S
C562        C563   1.399       .  A
C562        H573   1.084       .  S
C563        C564   1.423       .  A
C563        C568   1.406       .  A
C564        C565   1.413       .  A
C565        C566   1.393       .  A
C565        H574   1.077       .  S
C566        C567   1.401       .  A
C566        H575   1.083       .  S
C567        C568   1.402       .  A
C568        H576   1.084       .  S
C577        C578   1.400       .  A
C577        C582   1.400   1_655  A
C578        C579   1.396       .  A
C578        H591   1.083       .  S
C579        C580   1.414       .  A
C579        H592   1.078       .  S
C580        C586   1.427       .  A
C580        C581   1.422   1_655  A
C581        C583   1.399       .  A
C581        C582   1.404       .  A
C582        H593   1.085       .  S
C583        C584   1.389       .  A
C583        H594   1.084       .  S
C584        C585   1.399       .  A
C584        H595   1.084       .  S
C585        C586   1.423   1_455  A
C585        C590   1.403       .  A
C586        C587   1.415       .  A
C587        C588   1.396       .  A
C587        H596   1.078       .  S
C588        C589   1.397       .  A
C588        H597   1.084       .  S
C589        C590   1.397   1_655  A
C590        H598   1.085       .  S
C599        C600   1.398       .  A
C599        C604   1.399   1_445  A
C600        C601   1.398       .  A
C600        H613   1.084       .  S
C601        C602   1.416       .  A
C601        H614   1.077       .  S
C602        C608   1.431       .  A
C602        C603   1.423   1_445  A
C603        C605   1.399       .  A
C603        C604   1.404       .  A
C604        H615   1.085       .  S
C605        C606   1.389       .  A
C605        H616   1.084       .  S
C606        C607   1.399       .  A
C606        H617   1.084       .  S
C607        C608   1.424   1_665  A
C607        C612   1.405       .  A
C608        C609   1.415       .  A
C609        C610   1.397       .  A
C609        H618   1.077       .  S
C610        C611   1.399       .  A
C610        H619   1.084       .  S
C611        C612   1.399   1_445  A
C612        H620   1.085       .  S
C621        C622   1.402       .  A
C621        C626   1.400   1_455  A
C622        C623   1.397       .  A
C622        H635   1.083       .  S
C623        C624   1.415       .  A
C623        H636   1.077       .  S
C624        C630   1.431       .  A
C624        C625   1.423   1_455  A
C625        C627   1.398       .  A
C625        C626   1.403       .  A
C626        H637   1.084       .  S
C627        C628   1.387       .  A
C627        H638   1.084       .  S
C628        C629   1.398       .  A
C628        H639   1.084       .  S
C629        C630   1.422   1_655  A
C629        C634   1.402       .  A
C630        C631   1.415       .  A
C631        C632   1.398       .  A
C631        H640   1.077       .  S
C632        C633   1.402       .  A
C632        H641   1.083       .  S
C633        C634   1.401   1_455  A
C634        H642   1.084       .  S
C643        C644   1.400   1_655  A
C643        C648   1.404       .  A
C644        C645   1.390       .  A
C644        H657   1.083       .  S
C645        C646   1.412   1_455  A
C645        H658   1.076       .  S
C646        C652   1.427       .  A
C646        C647   1.422       .  A
C647        C649   1.401       .  A
C647        C648   1.409       .  A
C648        H659   1.084       .  S
C649        C650   1.393       .  A
C649        H660   1.084       .  S
C650        C651   1.401       .  A
C650        H661   1.084       .  S
C651        C652   1.422       .  A
C651        C656   1.409       .  A
C652        C653   1.413   1_655  A
C653        C654   1.390       .  A
C653        H662   1.076       .  S
C654        C655   1.400   1_455  A
C654        H663   1.083       .  S
C655        C656   1.404       .  A
C656        H664   1.084       .  S
C665        C666   1.399       .  A
C665        C670   1.400       .  A
C666        C667   1.397       .  A
C666        H679   1.084       .  S
C667        C668   1.415       .  A
C667        H680   1.078       .  S
C668        C674   1.428       .  A
C668        C669   1.422       .  A
C669        C671   1.400       .  A
C669        C670   1.405       .  A
C670        H681   1.085       .  S
C671        C672   1.391       .  A
C671        H682   1.084       .  S
C672        C673   1.400       .  A
C672        H683   1.084       .  S
C673        C674   1.423       .  A
C673        C678   1.406       .  A
C674        C675   1.415       .  A
C675        C676   1.396       .  A
C675        H684   1.078       .  S
C676        C677   1.398       .  A
C676        H685   1.084       .  S
C677        C678   1.400       .  A
C678        H686   1.085       .  S
C687        C688   1.401       .  A
C687        C692   1.403       .  A
C688        C689   1.397       .  A
C688        H701   1.083       .  S
C689        C690   1.416       .  A
C689        H702   1.077       .  S
C690        C696   1.431   1_554  A
C690        C691   1.421       .  A
C691        C693   1.400       .  A
C691        C692   1.405       .  A
C692        H703   1.084       .  S
C693        C694   1.390   1_554  A
C693        H704   1.084       .  S
C694        C695   1.399       .  A
C694        H705   1.084       .  S
C695        C696   1.423       .  A
C695        C700   1.407       .  A
C696        C697   1.414       .  A
C697        C698   1.396       .  A
C697        H706   1.077       .  S
C698        C699   1.402       .  A
C698        H707   1.083       .  S
C699        C700   1.403       .  A
C700        H708   1.084       .  S
C709        C710   1.398   1_565  A
C709        C714   1.400       .  A
C710        C711   1.395       .  A
C710        H723   1.084       .  S
C711        C712   1.414       .  A
C711        H724   1.078       .  S
C712        C718   1.428   1_545  A
C712        C713   1.423   1_545  A
C713        C715   1.400       .  A
C713        C714   1.406       .  A
C714        H725   1.085       .  S
C715        C716   1.391       .  A
C715        H726   1.084       .  S
C716        C717   1.400       .  A
C716        H727   1.084       .  S
C717        C718   1.422       .  A
C717        C722   1.405       .  A
C718        C719   1.415   1_565  A
C719        C720   1.396       .  A
C719        H728   1.078       .  S
C720        C721   1.398   1_545  A
C720        H729   1.084       .  S
C721        C722   1.400       .  A
C722        H730   1.085       .  S
C731        C732   1.401   1_565  A
C731        C736   1.403       .  A
C732        C733   1.395       .  A
C732        H745   1.083       .  S
C733        C734   1.414   1_545  A
C733        H746   1.077       .  S
C734        C740   1.430   1_556  A
C734        C735   1.422       .  A
C735        C737   1.400       .  A
C735        C736   1.405       .  A
C736        H747   1.084       .  S
C737        C738   1.390   1_556  A
C737        H748   1.084       .  S
C738        C739   1.400       .  A
C738        H749   1.084       .  S
C739        C740   1.422       .  A
C739        C744   1.406       .  A
C740        C741   1.414       .  A
C741        C742   1.395       .  A
C741        H750   1.077       .  S
C742        C743   1.402       .  A
C742        H751   1.083       .  S
C743        C744   1.403       .  A
C744        H752   1.084       .  S
C753        C754   1.400       .  A
C753        C758   1.403       .  A
C754        C755   1.394       .  A
C754        H767   1.083       .  S
C755        C756   1.415       .  A
C755        H768   1.077       .  S
C756        C762   1.428       .  A
C756        C757   1.422       .  A
C757        C759   1.400       .  A
C757        C758   1.405       .  A
C758        H769   1.084       .  S
C759        C760   1.390       .  A
C759        H770   1.084       .  S
C760        C761   1.399       .  A
C760        H771   1.084       .  S
C761        C762   1.423       .  A
C761        C766   1.406       .  A
C762        C763   1.413       .  A
C763        C764   1.393       .  A
C763        H772   1.077       .  S
C764        C765   1.401       .  A
C764        H773   1.083       .  S
C765        C766   1.402       .  A
C766        H774   1.084       .  S
C775        C776   1.402       .  A
C775        C780   1.402       .  A
C776        C777   1.392       .  A
C776        H789   1.083       .  S
C777        C778   1.413       .  A
C777        H790   1.077       .  S
C778        C784   1.429       .  A
C778        C779   1.423       .  A
C779        C781   1.399       .  A
C779        C780   1.407       .  A
C780        H791   1.084       .  S
C781        C782   1.391       .  A
C781        H792   1.084       .  S
C782        C783   1.400       .  A
C782        H793   1.084       .  S
C783        C784   1.422       .  A
C783        C788   1.405       .  A
C784        C785   1.415       .  A
C785        C786   1.394       .  A
C785        H794   1.077       .  S
C786        C787   1.401       .  A
C786        H795   1.083       .  S
C787        C788   1.403       .  A
C788        H796   1.084       .  S
C797        C798   1.396       .  A
C797        C802   1.400   1_655  A
C798        C799   1.394       .  A
C798        H811   1.084       .  S
C799        C800   1.414       .  A
C799        H812   1.077       .  S
C800        C806   1.429       .  A
C800        C801   1.424   1_655  A
C801        C803   1.400       .  A
C801        C802   1.407       .  A
C802        H813   1.085       .  S
C803        C804   1.391       .  A
C803        H814   1.084       .  S
C804        C805   1.400       .  A
C804        H815   1.084       .  S
C805        C806   1.422   1_455  A
C805        C810   1.406       .  A
C806        C807   1.416       .  A
C807        C808   1.396       .  A
C807        H816   1.077       .  S
C808        C809   1.398       .  A
C808        H817   1.083       .  S
C809        C810   1.402   1_655  A
C810        H818   1.085       .  S
C819        C820   1.401       .  A
C819        C824   1.403   1_455  A
C820        C821   1.397       .  A
C820        H833   1.083       .  S
C821        C822   1.416       .  A
C821        H834   1.077       .  S
C822        C828   1.431   1_556  A
C822        C823   1.422   1_455  A
C823        C825   1.400       .  A
C823        C824   1.404       .  A
C824        H835   1.084       .  S
C825        C826   1.390   1_556  A
C825        H836   1.084       .  S
C826        C827   1.399       .  A
C826        H837   1.084       .  S
C827        C828   1.423   1_655  A
C827        C832   1.407       .  A
C828        C829   1.414       .  A
C829        C830   1.396       .  A
C829        H838   1.077       .  S
C830        C831   1.402       .  A
C830        H839   1.083       .  S
C831        C832   1.403   1_455  A
C832        H840   1.084       .  S
C841        C842   1.397       .  A
C841        C846   1.397   1_445  A
C842        C843   1.397       .  A
C842        H855   1.084       .  S
C843        C844   1.415       .  A
C843        H856   1.078       .  S
C844        C850   1.427       .  A
C844        C845   1.422   1_445  A
C845        C847   1.399       .  A
C845        C846   1.403       .  A
C846        H857   1.085       .  S
C847        C848   1.390       .  A
C847        H858   1.084       .  S
C848        C849   1.400       .  A
C848        H859   1.084       .  S
C849        C850   1.422   1_665  A
C849        C854   1.403       .  A
C850        C851   1.415       .  A
C851        C852   1.397       .  A
C851        H860   1.078       .  S
C852        C853   1.400       .  A
C852        H861   1.083       .  S
C853        C854   1.401   1_445  A
C854        H862   1.085       .  S
C863        C864   1.401       .  A
C863        C868   1.401   1_645  A
C864        C865   1.396       .  A
C864        H877   1.083       .  S
C865        C866   1.414       .  A
C865        H878   1.077       .  S
C866        C872   1.430   1_556  A
C866        C867   1.423   1_645  A
C867        C869   1.399       .  A
C867        C868   1.404       .  A
C868        H879   1.084       .  S
C869        C870   1.388   1_556  A
C869        H880   1.084       .  S
C870        C871   1.399       .  A
C870        H881   1.084       .  S
C871        C872   1.422   1_465  A
C871        C876   1.402       .  A
C872        C873   1.416       .  A
C873        C874   1.397       .  A
C873        H882   1.077       .  S
C874        C875   1.401       .  A
C874        H883   1.083       .  S
C875        C876   1.402   1_645  A
C876        H884   1.084       .  S
C885        C886   1.401       .  A
C885        C890   1.401   1_655  A
C886        C887   1.398       .  A
C886        H899   1.083       .  S
C887        C888   1.416       .  A
C887        H900   1.077       .  S
C888        C894   1.430       .  A
C888        C889   1.421   1_655  A
C889        C891   1.399       .  A
C889        C890   1.401       .  A
C890        H901   1.084       .  S
C891        C892   1.387       .  A
C891        H902   1.084       .  S
C892        C893   1.398       .  A
C892        H903   1.084       .  S
C893        C894   1.423   1_455  A
C893        C898   1.403       .  A
C894        C895   1.414       .  A
C895        C896   1.396       .  A
C895        H904   1.077       .  S
C896        C897   1.402       .  A
C896        H905   1.083       .  S
C897        C898   1.401   1_655  A
C898        H906   1.084       .  S
C907        C908   1.401       .  A
C907        C912   1.402   1_455  A
C908        C909   1.397       .  A
C908        H921   1.083       .  S
C909        C910   1.415       .  A
C909        H922   1.077       .  S
C910        C916   1.430       .  A
C910        C911   1.422   1_455  A
C911        C913   1.399       .  A
C911        C912   1.403       .  A
C912        H923   1.084       .  S
C913        C914   1.388       .  A
C913        H924   1.084       .  S
C914        C915   1.399       .  A
C914        H925   1.084       .  S
C915        C916   1.422   1_655  A
C915        C920   1.403       .  A
C916        C917   1.415       .  A
C917        C918   1.397       .  A
C917        H926   1.077       .  S
C918        C919   1.402       .  A
C918        H927   1.083       .  S
C919        C920   1.401   1_455  A
C920        H928   1.084       .  S
