geometry optimzed in LAMMPS
_audit_creation_date              2020-11-30 
_audit_creation_method            'lammps2cif' 
_symmetry_space_group_name_H-M    'P1' 
_symmetry_Int_Tables_number       1 
_symmetry_cell_setting            triclinic 
loop_ 
_symmetry_equiv_pos_as_xyz 
  x,y,z 
_cell_length_a                    34.35818639 
_cell_length_b                    34.600727573058656 
_cell_length_c                    45.80973026392488 
_cell_angle_alpha                 89.74234053595613 
_cell_angle_beta                  90.31284608222128 
_cell_angle_gamma                 120.22127618091477 
loop_ 
_atom_site_label 
_atom_site_type_symbol 
_atom_site_fract_x 
_atom_site_fract_y 
_atom_site_fract_z 
_atom_site_charge 
C1          C  0.26848452  0.39509400  0.01953411     0.03300
C2          C  0.22869917  0.35343043  0.01721719    -0.12900
C3          C  0.25653592  0.29567350  0.48756651     0.00800
C4          C  0.27038093  0.32438261  0.46351377    -0.11400
C5          C  0.31063791  0.36568134  0.46444753     0.03300
C6          C  0.29809898  0.41077666  0.99581225    -0.10800
H7          H  0.20636510  0.34003816  0.03580783     0.08900
H8          H  0.24895238  0.31505692  0.44433681     0.06400
H9          H  0.32899251  0.44280319  0.99736335     0.06300
C10         C  0.76421688  0.86078932  0.03424797     0.03300
C11         C  0.80770826  0.89744249  0.03680935    -0.12900
C12         C  0.81403452  0.94022219  0.50145171     0.00800
C13         C  0.78937553  0.92710596  0.47513438    -0.11400
C14         C  0.74810996  0.88643844  0.47349323     0.03300
C15         C  0.73237066  0.85918322  0.49851990    -0.10800
H16         H  0.81652799  0.91946870  0.05550745     0.08900
H17         H  0.80309292  0.94762258  0.45578300     0.06400
H18         H  0.70117903  0.82736122  0.49757788     0.06300
N19         N  0.46621768  0.66737289  0.20292142    -0.36400
N20         N  0.41256733  0.60514913  0.24824700    -0.57000
N21         N  0.47420578  0.66608852  0.29276126    -0.36400
N22         N  0.52887546  0.72729883  0.24754349    -0.57000
C23         C  0.43926620  0.63062658  0.18677917     0.27100
C24         C  0.50247909  0.69421444  0.18632502     0.27100
C25         C  0.45098373  0.62812410  0.30862364     0.27100
C26         C  0.51143556  0.69419657  0.30840408     0.27100
C27         C  0.38467409  0.58481555  0.22538927     0.35800
C28         C  0.39019021  0.58270967  0.27242922     0.35800
C29         C  0.54802082  0.75251796  0.22360314     0.35800
C30         C  0.55089309  0.75315985  0.27079206     0.35800
C31         C  0.45803029  0.63485071  0.15938873    -0.21700
C32         C  0.49762035  0.67500010  0.15902318    -0.21700
C33         C  0.47309105  0.63292236  0.33502059    -0.21700
C34         C  0.51116125  0.67440576  0.33481295    -0.21700
C35         C  0.34397696  0.54980555  0.23512772    -0.22800
C36         C  0.34769999  0.54806112  0.26490753    -0.22800
C37         C  0.58224466  0.79475058  0.23171733    -0.22800
C38         C  0.58373016  0.79527443  0.26163399    -0.22800
C39         C  0.39792480  0.59342557  0.19583598    -0.18100
C40         C  0.53970848  0.73588228  0.19480162    -0.18100
C41         C  0.54565388  0.73745488  0.29978495    -0.18100
C42         C  0.40961542  0.58975802  0.30056279    -0.18100
H43         H  0.44492894  0.61124171  0.14152442     0.14800
H44         H  0.52039513  0.68822518  0.14068533     0.14800
H45         H  0.46294574  0.60916986  0.35281645     0.14800
H46         H  0.53600056  0.68824550  0.35213256     0.14800
H47         H  0.31550486  0.52653213  0.22201040     0.13100
H48         H  0.32247462  0.52324531  0.27921642     0.13100
H49         H  0.60499935  0.82188109  0.21762935     0.13100
H50         H  0.60772696  0.82275653  0.27503546     0.13100
H51         H  0.45871241  0.67524753  0.22319349     0.26300
H52         H  0.46330372  0.67373305  0.27356951     0.26300
C53         C  0.79771644  0.16573939  0.46374953     0.03300
C54         C  0.83362382  0.15738920  0.46158999    -0.12900
C55         C  0.86056606  0.16266472  0.48593119     0.00800
C56         C  0.79016054  0.07715683  0.01936809    -0.11400
C57         C  0.75015676  0.07883163  0.02088520     0.03300
C58         C  0.78783129  0.17733218  0.49096341    -0.10800
H59         H  0.84031944  0.14627212  0.44113438     0.08900
H60         H  0.80033533  0.06454002  0.03782684     0.06400
H61         H  0.75949769  0.18272107  0.49302544     0.06300
C62         C  0.26553140  0.05915042  0.48883337     0.03300
C63         C  0.22950102  0.06751204  0.48778151    -0.12900
C64         C  0.20967214  0.07103371  0.51366598     0.00800
C65         C  0.26163934  0.12733400  0.02982522    -0.11400
C66         C  0.30235798  0.12760672  0.02820209     0.03300
C67         C  0.28286757  0.05670105  0.51610360    -0.10800
H68         H  0.21685700  0.07121411  0.46685287     0.08900
H69         H  0.24207374  0.11653523  0.04976395     0.06400
H70         H  0.31243630  0.05315504  0.51710581     0.06300
N71         N  0.49760415  0.05544021  0.29427834    -0.36400
N72         N  0.55462906  0.05003421  0.24833671    -0.57000
N73         N  0.48449405  0.03199907  0.20767489    -0.36400
N74         N  0.42465053  0.03133842  0.25373836    -0.57000
C75         C  0.53320395  0.06039876  0.30994347     0.27100
C76         C  0.46360184  0.04520239  0.31326744     0.27100
C77         C  0.51069002  0.02272792  0.19052921     0.27100
C78         C  0.44628592  0.02030832  0.19282527     0.27100
C79         C  0.58604124  0.07045418  0.26932891     0.35800
C80         C  0.57694908  0.05225077  0.22358859     0.35800
C81         C  0.40627139  0.03923456  0.27737444     0.35800
C82         C  0.40374251  0.03608716  0.23012742     0.35800
C83         C  0.52198066  0.05373735  0.33932060    -0.21700
C84         C  0.47812810  0.04400757  0.34140412    -0.21700
C85         C  0.48817512  0.00390556  0.16458003    -0.21700
C86         C  0.44767439  0.00292699  0.16589415    -0.21700
C87         C  0.62857360  0.08460322  0.25811671    -0.22800
C88         C  0.62276915  0.07287554  0.22909662    -0.22800
C89         C  0.37160247  0.04630141  0.26884726    -0.22800
C90         C  0.37061545  0.04523335  0.23881141    -0.22800
C91         C  0.57658816  0.07380126  0.29886778    -0.18100
C92         C  0.42164295  0.04168926  0.30638472    -0.18100
C93         C  0.41433029  0.03234581  0.20088658    -0.18100
C94         C  0.55631095  0.03614405  0.19610222    -0.18100
H95         H  0.54337767  0.05627820  0.35750962     0.14800
H96         H  0.45966058  0.03814572  0.36154773     0.14800
H97         H  0.50063749  0.99416685  0.14601978     0.14800
H98         H  0.42283341  0.99237076  0.14858710     0.14800
H99         H  0.66041507  0.10141157  0.26967507     0.13100
H100        H  0.64923257  0.07933893  0.21375294     0.13100
H101        H  0.35054980  0.05338461  0.28270078     0.13100
H102        H  0.34815245  0.05064910  0.22498736     0.13100
H103        H  0.49897575  0.06467322  0.27252997     0.26300
H104        H  0.49479472  0.05266151  0.22587461     0.26300
C105        C  0.02315624  0.37399439  0.03692912     0.03300
C106        C  0.00997372  0.38616161  0.01095361    -0.12900
C107        C  0.08586104  0.39728767  0.47899508     0.00800
C108        C  0.08920850  0.35854266  0.48147095    -0.11400
C109        C  0.01056307  0.30562542  0.01398578     0.03300
C110        C  0.02457669  0.33429623  0.03792640    -0.10800
H111        H  0.00985355  0.41739972  0.00992434     0.08900
H112        H  0.10124443  0.34769675  0.46320721     0.06400
H113        H  0.03731724  0.32598930  0.05721519     0.06300
C114        C  0.06129202  0.87291371  0.02421458     0.03300
C115        C  0.05187333  0.84551635  0.99951000    -0.12900
C116        C  0.01182404  0.84517616  0.47004809     0.00800
C117        C  0.00875391  0.88395340  0.46774667    -0.11400
C118        C  0.05091497  0.92576519  0.99421771     0.03300
C119        C  0.06211966  0.91380518  0.02109087    -0.10800
H120        H  0.05279671  0.81474673  0.00126898     0.08900
H121        H  0.01760616  0.90270653  0.44746706     0.06400
H122        H  0.06906920  0.93516974  0.03994106     0.06300
N123        N  0.12707530  0.66928414  0.20833713    -0.36400
N124        N  0.12261537  0.72336967  0.25381005    -0.57000
N125        N  0.12664632  0.66319692  0.29815927    -0.36400
N126        N  0.12823301  0.60750476  0.25254183    -0.57000
C127        C  0.11661487  0.69606623  0.19247501     0.27100
C128        C  0.11709877  0.63331882  0.19164410     0.27100
C129        C  0.11296578  0.68670485  0.31438630     0.27100
C130        C  0.11812252  0.62643102  0.31386070     0.27100
C131        C  0.12857647  0.75089749  0.23108912     0.35800
C132        C  0.12714205  0.74680239  0.27828775     0.35800
C133        C  0.13188129  0.58783785  0.22817168     0.35800
C134        C  0.13350624  0.58563581  0.27539417     0.35800
C135        C  0.10085493  0.67737318  0.16521578    -0.21700
C136        C  0.10153485  0.63812637  0.16456933    -0.21700
C137        C  0.09630998  0.66498434  0.34085201    -0.21700
C138        C  0.10018465  0.62743617  0.34068581    -0.21700
C139        C  0.13737016  0.79220688  0.24117195    -0.22800
C140        C  0.13643399  0.78961135  0.27112352    -0.22800
C141        C  0.13955208  0.55328597  0.23560498    -0.22800
C142        C  0.14079853  0.55205308  0.26552338    -0.22800
C143        C  0.12218479  0.73766946  0.20150553    -0.18100
C144        C  0.12268496  0.59671843  0.19960469    -0.18100
C145        C  0.12655691  0.59221720  0.30485978    -0.18100
C146        C  0.11667707  0.72814784  0.30662215    -0.18100
H147        H  0.08997993  0.69058797  0.14752059     0.14800
H148        H  0.09164239  0.61577737  0.14606340     0.14800
H149        H  0.08277052  0.67505745  0.35862516     0.14800
H150        H  0.09025236  0.60340985  0.35829741     0.14800
H151        H  0.14269716  0.82077326  0.22831494     0.13100
H152        H  0.14054255  0.81569486  0.28594503     0.13100
H153        H  0.14243489  0.53031518  0.22105313     0.13100
H154        H  0.14475090  0.52801501  0.27849007     0.13100
H155        H  0.14378535  0.67682096  0.22828015     0.26300
H156        H  0.14443088  0.67384269  0.27871039     0.26300
O157        O  0.95656753  0.07131915  0.47397162    -0.88200
C158        C  0.98309048  0.14565788  0.04941290     0.87800
Mg159      Mg  0.96194103  0.01170578  0.47773240     1.58100
O160        O  0.07031458  0.19520108  0.47628352    -0.87900
O161        O  0.97548759  0.12970117  0.44631130    -0.75200
C162        C  0.19979820  0.13361895  0.00695751     0.92900
O163        O  0.97247354  0.04503745  0.05290772    -0.75100
O164        O  0.16713498  0.09564057  0.01453194    -0.82600
Mg165      Mg  0.92491477  0.05826221  0.02465593     1.58000
C166        C  0.21152691  0.25560469  0.48746821     0.92800
O167        O  0.89040710  0.11427919  0.48679702    -0.80800
H168        H  0.07879816  0.20990977  0.43369315    -0.06200
C169        C  0.11408067  0.16647822  0.04569119     0.87800
O170        O  0.02589286  0.04249068  0.44956178    -0.75300
O171        O  0.96965586  0.12895394  0.02509972    -0.88100
O172        O  0.17819405  0.26112587  0.49220780    -0.80900
C173        C  0.01543097  0.26586065  0.01449775     0.92900
C174        C  0.89825696  0.15412432  0.48376948     0.92800
Mg175      Mg  0.14292803  0.14888301  0.47990882     1.58000
O176        O  0.19425071  0.16588367  0.99921287    -0.80800
O177        O  0.11281549  0.18011360  0.44915305    -0.75100
O178        O  0.98249389  0.22887505  0.00587325    -0.80900
O179        O  0.87741404  0.98458610  0.02242883    -0.82600
O180        O  0.03859436  0.97726306  0.49713423    -0.80900
C181        C  0.08694633  0.19602003  0.45235114     0.87200
O182        O  0.08223980  0.08418628  0.47851320    -0.88100
O183        O  0.10683046  0.17806520  0.02176141    -0.88200
O184        O  0.10870438  0.12784153  0.04956773    -0.75200
Mg185      Mg  0.00524538  0.19039610  0.47750255     1.58000
O186        O  0.05343680  0.27045159  0.02140317    -0.82600
H187        H  0.94600972  0.06612023  0.43081234    -0.06300
O188        O  0.02052017  0.04226196  0.02328862    -0.87900
H189        H  0.02053711  0.03105249  0.06611911    -0.06200
H190        H  0.09108138  0.07612648  0.43635671    -0.06400
C191        C  0.00506647  0.03859402  0.04804440     0.87200
C192        C  0.95848527  0.08776580  0.44966371     0.87800
C193        C  0.06772750  0.06785588  0.45421496     0.87800
H194        H  0.12389590  0.18925513  0.06393821    -0.06300
O195        O  0.02278326  0.17783686  0.05324238    -0.75400
Mg196      Mg  0.09210261  0.06841093  0.01990105     1.58000
H197        H  0.96112811  0.13133694  0.06803104    -0.06300
C198        C  0.88092950  0.95093516  0.01559874     0.92800
O199        O  0.96675356  0.94840059  0.48392752    -0.82600
C200        C  0.00044150  0.94411208  0.49045367     0.92900
O201        O  0.93787909  0.18700694  0.48082254    -0.82600
Mg202      Mg  0.08032140  0.22273588  0.02256252     1.58200
O203        O  0.91772913  0.95446550  0.00706121    -0.80900
O204        O  0.20710932  0.21711131  0.48400322    -0.82600
C205        C  0.05374003  0.77292740  0.34952270    -0.11200
C206        C  0.07968233  0.78749963  0.37510284     0.15300
C207        C  0.11888869  0.78417577  0.37763870     0.02200
C208        C  0.13181029  0.76744725  0.35422412    -0.15600
C209        C  0.10481348  0.75117226  0.32910408    -0.10400
C210        C  0.06513443  0.75374291  0.32686989     0.08900
C211        C  0.06306447  0.80331143  0.39922083     0.10000
S212        S  0.15237936  0.79825296  0.41054318    -0.24700
H213        H  0.16180928  0.76475058  0.35618639     0.20200
S214        S  0.02657945  0.73149426  0.29639812    -0.30400
H215        H  0.02332710  0.77492905  0.34771118     0.10500
C216        C  0.08609779  0.84816537  0.40847481     0.03800
C217        C  0.06873178  0.86104441  0.43166988    -0.12700
C218        C  0.02778676  0.83027512  0.44495563    -0.08400
C219        C  0.00357717  0.78596297  0.43435591     0.07200
C220        C  0.02193841  0.77279689  0.41211604    -0.13500
S221        S  0.13679908  0.88924089  0.39034611    -0.30400
H222        H  0.08728838  0.89511807  0.43961332     0.11500
S223        S  0.94826852  0.74517497  0.44713807    -0.27500
H224        H  0.00356377  0.73859504  0.40433369     0.08700
H225        H  0.03240201  0.69466200  0.29141406     0.27100
H226        H  0.13431754  0.92653228  0.39982561     0.21900
H227        H  0.93432906  0.77614558  0.45329506     0.27200
H228        H  0.11680191  0.78695932  0.43007959     0.16100
C229        C  0.04835929  0.80119973  0.09115756    -0.11200
C230        C  0.08800021  0.82885331  0.10676183     0.15300
C231        C  0.11730425  0.87248529  0.09612442     0.02200
C232        C  0.10799806  0.88625778  0.06935908    -0.15600
C233        C  0.06878562  0.85805834  0.05334463    -0.10400
C234        C  0.03773886  0.81581636  0.06536798     0.08900
C235        C  0.09897956  0.81005854  0.13285216     0.10000
S236        S  0.16654614  0.91226145  0.11601207    -0.24700
H237        H  0.13158971  0.91920768  0.06095188     0.20200
S238        S  0.98284377  0.77981293  0.04991203    -0.30400
H239        H  0.02517516  0.76794938  0.09931995     0.10500
C240        C  0.07075700  0.79461343  0.15760239     0.03800
C241        C  0.08006696  0.77280152  0.18024725    -0.12700
C242        C  0.11751225  0.76670312  0.17900618    -0.08400
C243        C  0.14704967  0.78444058  0.15492496     0.07200
C244        C  0.13711355  0.80516009  0.13204793    -0.13500
S245        S  0.02310256  0.80300135  0.16050633    -0.30400
H246        H  0.05753006  0.75940432  0.19871210     0.11500
S247        S  0.19718473  0.78040670  0.15163336    -0.27500
H248        H  0.15900739  0.81702055  0.11318151     0.08700
H249        H  0.97696304  0.81473081  0.03923625     0.27100
H250        H  0.00727620  0.78112369  0.18746630     0.21900
H251        H  0.20439965  0.77888125  0.18174868     0.27200
H252        H  0.14911116  0.89577210  0.14393886     0.16100
C253        C  0.13257722  0.52536627  0.14059343    -0.11200
C254        C  0.08709772  0.49857327  0.13256744     0.15300
C255        C  0.05387251  0.50342462  0.14741525     0.02200
C256        C  0.06657070  0.53374941  0.17028309    -0.15600
C257        C  0.11206014  0.56225050  0.17713148    -0.10400
C258        C  0.14556143  0.55847777  0.16190298     0.08900
C259        C  0.07474175  0.46636405  0.10838088     0.10000
S260        S  0.99511554  0.47411125  0.13715827    -0.24700
H261        H  0.04094483  0.53713714  0.18177888     0.20200
S262        S  0.20498829  0.59522206  0.16824584    -0.30400
H263        H  0.15817872  0.52164851  0.12935931     0.10500
C264        C  0.08985563  0.48078808  0.07968055     0.03800
C265        C  0.07297311  0.44972489  0.05692815    -0.14300
C266        C  0.04003652  0.40495516  0.06203587    -0.08400
C267        C  0.02485298  0.39057495  0.09080824     0.07200
C268        C  0.04351546  0.42117775  0.11375078    -0.13500
S269        S  0.12851214  0.53903864  0.07154305    -0.30400
H270        H  0.08504827  0.46042604  0.03492487     0.11500
S271        S  0.97905290  0.33464980  0.09828244    -0.27500
H272        H  0.03194671  0.41061136  0.13586463     0.08700
H273        H  0.20206370  0.63275672  0.17649174     0.27100
H274        H  0.12697838  0.53490972  0.04096684     0.21900
H275        H  0.97912159  0.33872866  0.12882478     0.27200
H276        H  0.00275967  0.47519143  0.10694783     0.16100
C277        C  0.12915065  0.49502791  0.42558546    -0.11200
C278        C  0.11104208  0.47281193  0.39909073     0.15300
C279        C  0.08964022  0.42561422  0.39845025     0.02200
C280        C  0.08244283  0.40180432  0.42462707    -0.15600
C281        C  0.09857586  0.42400284  0.45145242    -0.10400
C282        C  0.12441805  0.47133664  0.45144021     0.08900
C283        C  0.11435986  0.50012214  0.37298712     0.10000
S284        S  0.07118335  0.39384849  0.36504218    -0.24700
H285        H  0.06358545  0.36558642  0.42403386     0.20200
S286        S  0.15359053  0.50356821  0.48333488    -0.30400
H287        H  0.14719402  0.53126952  0.42613067     0.10500
C288        C  0.07574122  0.49686309  0.35948340     0.03800
C289        C  0.08087996  0.52581161  0.33635467    -0.12700
C290        C  0.12372208  0.55935974  0.32719882    -0.08400
C291        C  0.16236754  0.56229919  0.34050238     0.07200
C292        C  0.15718515  0.53244524  0.36297151    -0.13500
S293        S  0.01996223  0.45844597  0.37305468    -0.30400
H294        H  0.05143799  0.52387711  0.32616879     0.11500
S295        S  0.21925819  0.60331928  0.33032056    -0.27500
H296        H  0.18691216  0.53517371  0.37331919     0.08700
H297        H  0.16106306  0.47064041  0.49584413     0.27100
H298        H  0.99595021  0.46768255  0.35186774     0.21900
H299        H  0.21009161  0.63359053  0.31571799     0.27200
H300        H  0.10240043  0.42806039  0.34675201     0.16100
C301        C  0.28246060  0.02216330  0.41392724    -0.11200
C302        C  0.32920634  0.04948423  0.41013335     0.15300
C303        C  0.35483641  0.07970560  0.43267220     0.02200
C304        C  0.33321283  0.08264207  0.45772630    -0.15600
C305        C  0.28656988  0.05489226  0.46162254    -0.10400
C306        C  0.26128859  0.02347103  0.43967908     0.08900
C307        C  0.35012310  0.04613276  0.38245045     0.10000
S308        S  0.41531406  0.11471873  0.43126244    -0.24700
H309        H  0.35311125  0.10653038  0.47453862     0.20200
S310        S  0.20247238  0.98253956  0.44392176    -0.30400
H311        H  0.26239754  0.99877688  0.39693410     0.10500
C312        C  0.34737027  0.00569900  0.37362604     0.03800
C313        C  0.36890161  0.00468713  0.34785568    -0.12700
C314        C  0.39438258  0.04346302  0.33108925    -0.08400
C315        C  0.39694428  0.08381409  0.33986103     0.07200
C316        C  0.37395321  0.08438138  0.36490048    -0.13500
S317        S  0.31908664  0.95600949  0.39605023    -0.30400
H318        H  0.36764764  0.97405071  0.34131085     0.11500
S319        S  0.42943545  0.13594773  0.32045713    -0.27500
H320        H  0.37587111  0.11539948  0.37132611     0.08700
H321        H  0.20483392  0.97657576  0.47414620     0.27100
H322        H  0.32666111  0.92784173  0.37784703     0.21900
H323        H  0.46199557  0.12721306  0.30891434     0.27200
H324        H  0.42289648  0.08434511  0.41551328     0.16100
C325        C  0.33862921  0.06300988  0.07732070    -0.11200
C326        C  0.34581891  0.08606172  0.10369853     0.15300
C327        C  0.33830956  0.12251528  0.10520552     0.02200
C328        C  0.32518173  0.13600178  0.08007071    -0.15600
C329        C  0.31772925  0.11279252  0.05369739    -0.10400
C330        C  0.32335312  0.07511679  0.05256430     0.08900
C331        C  0.36221972  0.07201270  0.12906994     0.10000
S332        S  0.34397692  0.15246631  0.13857513    -0.24700
H333        H  0.32001214  0.16439255  0.08116506     0.20200
S334        S  0.30945066  0.03985308  0.02080782    -0.30400
H335        H  0.34394272  0.03471037  0.07625580     0.10500
C336        C  0.33489012  0.03068399  0.14310949     0.03800
C337        C  0.35200147  0.01866057  0.16709022    -0.12700
C338        C  0.39583128  0.04735082  0.17714637    -0.08400
C339        C  0.42310281  0.08890655  0.16310051     0.07200
C340        C  0.40606874  0.10060714  0.13911599    -0.13500
S341        S  0.27812012  0.99364996  0.13071525    -0.30400
H342        H  0.33163773  0.98676893  0.17785633     0.11500
S343        S  0.48027324  0.12793409  0.17416532    -0.27500
H344        H  0.42708856  0.13226353  0.12817113     0.08700
H345        H  0.27305628  0.04482941  0.01166206     0.27100
H346        H  0.26750707  0.95942384  0.15124102     0.21900
H347        H  0.47462016  0.11680226  0.20397349     0.27200
H348        H  0.33147205  0.11596183  0.15747368     0.16100
C349        C  0.65699267  0.07784493  0.35701604    -0.11200
C350        C  0.67650355  0.12241638  0.36611852     0.15300
C351        C  0.66564586  0.15176186  0.35150886     0.02200
C352        C  0.63466313  0.13545324  0.32849252    -0.15600
C353        C  0.61376592  0.09035381  0.32024377    -0.10400
C354        C  0.62533435  0.06126411  0.33447752     0.08900
C355        C  0.70717953  0.13642652  0.39137980     0.10000
S356        S  0.68885253  0.20962820  0.36165606    -0.24700
H357        H  0.62538694  0.15758511  0.31764809     0.20200
S358        S  0.60048806  0.00260054  0.32575475    -0.30400
H359        H  0.66561659  0.05547093  0.36820003     0.10500
C360        C  0.69049953  0.12138068  0.41965111     0.03800
C361        C  0.72082405  0.13189699  0.44280617    -0.12700
C362        C  0.76758614  0.15817170  0.43844888    -0.08400
C363        C  0.78393791  0.17494685  0.41012660     0.07200
C364        C  0.75357512  0.16319329  0.38686343    -0.13500
S365        S  0.63054208  0.08890764  0.42621026    -0.30400
H366        H  0.70804784  0.11881199  0.46434335     0.11500
S367        S  0.84264542  0.21235841  0.40216931    -0.27500
H368        H  0.76612535  0.17508674  0.36506423     0.08700
H369        H  0.56222470  0.99637671  0.31055637     0.27100
H370        H  0.63315868  0.08370150  0.45650167     0.21900
H371        H  0.85322249  0.23394172  0.42941119     0.27200
H372        H  0.69577153  0.20455500  0.39134863     0.16100
C373        C  0.65021139  0.02600487  0.07289558    -0.11200
C374        C  0.66974807  0.05050841  0.09846916     0.15300
C375        C  0.71664158  0.08092394  0.09917503     0.02200
C376        C  0.74232553  0.08808649  0.07393692    -0.15600
C377        C  0.72249681  0.06509955  0.04790473    -0.10400
C378        C  0.67605898  0.03265308  0.04776588     0.08900
C379        C  0.64000187  0.04630726  0.12318296     0.10000
S380        S  0.74531558  0.11307596  0.13119618    -0.24700
H381        H  0.77788832  0.11292086  0.07434491     0.20200
S382        S  0.64780588  0.99894750  0.01620419    -0.30400
H383        H  0.61435868  0.00222453  0.07232011     0.10500
C384        C  0.62889747  0.07970073  0.12858595     0.03800
C385        C  0.60140938  0.07517939  0.15239679    -0.12700
C386        C  0.58467648  0.03796327  0.17103321    -0.08400
C387        C  0.59521464  0.00411177  0.16537829     0.07200
C388        C  0.62280264  0.00870223  0.14155367    -0.13500
S389        S  0.64925723  0.12787626  0.10490146    -0.30400
H390        H  0.59282708  0.10075090  0.15665907     0.11500
S391        S  0.57512558  0.95469710  0.18776118    -0.27500
H392        H  0.63114948  0.98291805  0.13737059     0.08700
H393        H  0.68585198  0.99943420  0.00458470     0.27100
H394        H  0.63231655  0.15056120  0.12115299     0.21900
H395        H  0.53656294  0.95397197  0.19850031     0.27200
H396        H  0.71572697  0.08207153  0.15175831     0.16100
C397        C  0.68418192  0.87747555  0.40268264    -0.11200
C398        C  0.66952848  0.83313385  0.39439548     0.15300
C399        C  0.68285705  0.80762470  0.41153649     0.02200
C400        C  0.70987506  0.82665634  0.43626124    -0.15600
C401        C  0.72262016  0.87015990  0.44548014    -0.10400
C402        C  0.70931202  0.89574899  0.42834688     0.08900
C403        C  0.63953360  0.81369196  0.36840653     0.10000
S404        S  0.66507227  0.74992306  0.40389994    -0.24700
H405        H  0.71999143  0.80668435  0.44899866     0.20200
S406        S  0.72054729  0.95057790  0.43887642    -0.30400
H407        H  0.67439209  0.89743444  0.38965077     0.10500
C408        C  0.59600353  0.80851722  0.36742575     0.03800
C409        C  0.56684403  0.78502662  0.34420058    -0.12700
C410        C  0.57985190  0.76601654  0.32207614    -0.08400
C411        C  0.62386057  0.77236375  0.32256781     0.07200
C412        C  0.65340551  0.79692231  0.34528540    -0.13500
S413        S  0.57608900  0.82898672  0.39662209    -0.30400
H414        H  0.53306576  0.77993577  0.34372110     0.11500
S415        S  0.64390815  0.74867814  0.29559589    -0.27500
H416        H  0.68685596  0.80111133  0.34573341     0.08700
H417        H  0.71566885  0.94161422  0.46902679     0.27100
H418        H  0.53485435  0.81878945  0.38356280     0.21900
H419        H  0.60208851  0.71064983  0.28934193     0.27200
H420        H  0.62171504  0.73821018  0.39394410     0.16100
C421        C  0.65906948  0.83031789  0.07835131    -0.11200
C422        C  0.67423244  0.82885331  0.10661544     0.15300
C423        C  0.71976448  0.84146710  0.11106335     0.02200
C424        C  0.74776123  0.85082947  0.08703753    -0.15600
C425        C  0.73240486  0.85099348  0.05856654    -0.10400
C426        C  0.68810921  0.84292711  0.05445712     0.08900
C427        C  0.64079392  0.80751308  0.13011715     0.10000
S428        S  0.74399604  0.84576175  0.14680711    -0.24700
H429        H  0.78198014  0.85803791  0.09065037     0.20200
S430        S  0.66702033  0.84957688  0.01979261    -0.30400
H431        H  0.62422053  0.82104069  0.07482284     0.10500
C432        C  0.61205921  0.82337684  0.13891692     0.03800
C433        C  0.57896509  0.79929572  0.15996093    -0.12700
C434        C  0.57541200  0.76084970  0.17297559    -0.08400
C435        C  0.60550110  0.74623227  0.16492258     0.07200
C436        C  0.63681845  0.76892113  0.14306237    -0.13500
S437        S  0.61849828  0.87484350  0.12424861    -0.30400
H438        H  0.55609683  0.81052172  0.16662377     0.11500
S439        S  0.60497853  0.69815570  0.18093616    -0.27500
H440        H  0.65860130  0.75646446  0.13612706     0.08700
H441        H  0.70857767  0.88498767  0.01006284     0.27100
H442        H  0.58256646  0.87377818  0.13953690     0.21900
H443        H  0.58763142  0.69998886  0.20824614     0.27200
H444        H  0.71425791  0.85557710  0.16162445     0.16100
C445        C  0.33579436  0.51126530  0.36087938    -0.11200
C446        C  0.35909356  0.48847564  0.36712272     0.15300
C447        C  0.39636856  0.49669257  0.34978037     0.02200
C448        C  0.40971030  0.52758136  0.32700446    -0.15600
C449        C  0.38856017  0.55270941  0.32211753    -0.10400
C450        C  0.35078463  0.54411807  0.33906443     0.08900
C451        C  0.34467709  0.45700819  0.39209278     0.10000
S452        S  0.42996284  0.47086934  0.35651329    -0.24700
H453        H  0.43873105  0.53418625  0.31403005     0.20200
S454        S  0.32063617  0.57395485  0.33430827    -0.30400
H455        H  0.30674126  0.50455464  0.37383982     0.10500
C456        C  0.34772951  0.47201485  0.42103334     0.03800
C457        C  0.33648090  0.44156450  0.44411698    -0.12700
C458        C  0.32399299  0.39669938  0.43908110    -0.08400
C459        C  0.32253580  0.38230384  0.40997727     0.07200
C460        C  0.33116361  0.41207915  0.38691030    -0.13500
S461        S  0.36803891  0.53031502  0.42879481    -0.30400
H462        H  0.33742656  0.45282028  0.46624691     0.11500
S463        S  0.31325088  0.32767371  0.40067091    -0.27500
H464        H  0.32961586  0.40073713  0.36468999     0.08700
H465        H  0.35657417  0.61354722  0.32290941     0.27100
H466        H  0.36197182  0.52584081  0.45921749     0.21900
H467        H  0.33396951  0.32288586  0.42590693     0.27200
H468        H  0.42653106  0.47022544  0.38711090     0.16100
C469        C  0.26881779  0.45970105  0.08722506    -0.11200
C470        C  0.31277302  0.47552915  0.09777033     0.15300
C471        C  0.34125479  0.46393294  0.08270049     0.02200
C472        C  0.32500728  0.43627481  0.05822658    -0.15600
C473        C  0.28160682  0.42152807  0.04704155    -0.10400
C474        C  0.25342215  0.43405898  0.06163979     0.08900
C475        C  0.32826341  0.50351517  0.12459509     0.10000
S476        S  0.39929614  0.48454372  0.09279305    -0.24700
H477        H  0.34706691  0.42709204  0.04727513     0.20200
S478        S  0.19869220  0.42072610  0.04806531    -0.30400
H479        H  0.24673746  0.46842802  0.09859443     0.10500
C480        C  0.33160493  0.54587955  0.12590903     0.03800
C481        C  0.35151812  0.57314146  0.15044150    -0.12700
C482        C  0.36987266  0.55984352  0.17316589    -0.08400
C483        C  0.36553960  0.51699923  0.17204799     0.07200
C484        C  0.34340925  0.48886562  0.14839401    -0.13500
S485        S  0.31447413  0.56723194  0.09540520    -0.30400
H486        H  0.35543475  0.60619394  0.15119015     0.11500
S487        S  0.39031048  0.49739024  0.19885370    -0.27500
H488        H  0.34069686  0.45629570  0.14757107     0.08700
H489        H  0.21013586  0.42419108  0.01835776     0.27100
H490        H  0.31954813  0.60554732  0.10951067     0.21900
H491        H  0.42933247  0.53906812  0.20352452     0.27200
H492        H  0.40775783  0.52654800  0.10260924     0.16100
C493        C  0.32076385  0.35193674  0.51571822     0.03300
C494        C  0.28197039  0.30923472  0.51356540    -0.12900
C495        C  0.21898683  0.32785594  0.99151462     0.00800
C496        C  0.24872970  0.34424277  0.96802790    -0.11400
C497        C  0.28847595  0.38569095  0.97010905     0.03300
C498        C  0.33557626  0.37915652  0.49063832    -0.10800
H499        H  0.27016638  0.28755592  0.53253020     0.08900
H500        H  0.24074182  0.32487840  0.94810985     0.06400
H501        H  0.36568700  0.41182564  0.49185140     0.06300
C502        C  0.75720683  0.87226247  0.52462371     0.03300
C503        C  0.79785886  0.91281886  0.52594669    -0.12900
C504        C  0.83958636  0.90708910  0.01517149     0.00800
C505        C  0.82784794  0.87962081  0.99030557    -0.11400
C506        C  0.78315297  0.84451899  0.98614017     0.03300
C507        C  0.75202305  0.83430487  0.00893380    -0.10800
H508        H  0.81751597  0.92258375  0.54595566     0.08900
H509        H  0.85252041  0.88773728  0.97326383     0.06400
H510        H  0.71793153  0.80655091  0.00667334     0.06300
N511        N  0.56747979  0.59862091  0.70347856    -0.36400
N512        N  0.50340913  0.54088563  0.74569981    -0.57000
N513        N  0.56223085  0.60038319  0.79204059    -0.36400
N514        N  0.62498315  0.65927313  0.74990195    -0.57000
C515        C  0.53198524  0.57211788  0.68599456     0.27100
C516        C  0.59450710  0.63634382  0.68831304     0.27100
C517        C  0.52328131  0.57532782  0.80657199     0.27100
C518        C  0.58870565  0.63622369  0.80903059     0.27100
C519        C  0.48619083  0.51379417  0.72223668     0.35800
C520        C  0.48229790  0.51576966  0.76932761     0.35800
C521        C  0.65228804  0.67798996  0.72677183     0.35800
C522        C  0.65058517  0.67753073  0.77399981     0.35800
C523        C  0.53676037  0.59311421  0.65933804    -0.21700
C524        C  0.57574489  0.63388012  0.66096340    -0.21700
C525        C  0.52496785  0.59558956  0.83303142    -0.21700
C526        C  0.56642819  0.63370494  0.83471976    -0.21700
C527        C  0.45353644  0.47130559  0.73095993    -0.22800
C528        C  0.45118791  0.47250818  0.76088025    -0.22800
C529        C  0.69553913  0.70846030  0.73618467    -0.22800
C530        C  0.69441180  0.70821513  0.76619883    -0.22800
C531        C  0.49699310  0.52842806  0.69303722    -0.18100
C532        C  0.63753943  0.67104503  0.69743341    -0.18100
C533        C  0.63349230  0.66950478  0.80266359    -0.18100
C534        C  0.48815015  0.53253034  0.79803874    -0.18100
H535        H  0.51474632  0.58053650  0.64052419     0.14800
H536        H  0.58927118  0.65843188  0.64359678     0.14800
H537        H  0.49937690  0.58358284  0.84978971     0.14800
H538        H  0.57876122  0.65660047  0.85297089     0.14800
H539        H  0.43293987  0.44274098  0.71721179     0.13100
H540        H  0.42848737  0.44499837  0.77476161     0.13100
H541        H  0.72461695  0.72933671  0.72281260     0.13100
H542        H  0.72230954  0.72888775  0.78057515     0.13100
H543        H  0.57572725  0.58923839  0.72310664     0.26300
H544        H  0.57224471  0.59046372  0.77352249     0.26300
C545        C  0.76645933  0.11447999  0.97281483     0.03300
C546        C  0.80577928  0.11183626  0.97149193    -0.12900
C547        C  0.81827480  0.09410580  0.99478265     0.00800
C548        C  0.85001247  0.17383966  0.51316677    -0.11400
C549        C  0.81269964  0.17987888  0.51594331     0.03300
C550        C  0.73862916  0.09764176  0.99751345    -0.10800
H551        H  0.82722155  0.12428431  0.95243643     0.08900
H552        H  0.86956799  0.17588872  0.53234771     0.06400
H553        H  0.70856330  0.10026683  0.99891380     0.06300
C554        C  0.31062097  0.15120450  0.97723390     0.03300
C555        C  0.27012243  0.15217222  0.97944788    -0.12900
C556        C  0.24528338  0.13954049  0.00570741     0.00800
C557        C  0.22603653  0.06659586  0.54062355    -0.11400
C558        C  0.26367514  0.06097303  0.54201831     0.03300
C559        C  0.32689110  0.13983869  0.00208819    -0.10800
H560        H  0.25691254  0.16058018  0.96045748     0.08900
H561        H  0.21124460  0.07025786  0.56051675     0.06400
H562        H  0.35789706  0.13888983  0.00085854     0.06300
N563        N  0.58130354  0.20224054  0.79226314    -0.36400
N564        N  0.64460800  0.20795878  0.74638974    -0.57000
N565        N  0.58002281  0.19444550  0.70247655    -0.36400
N566        N  0.51572278  0.18594626  0.74862909    -0.57000
C567        C  0.61112231  0.19611567  0.80806548     0.27100
C568        C  0.54446104  0.18933193  0.80925256     0.27100
C569        C  0.61020629  0.18930053  0.68645973     0.27100
C570        C  0.54036546  0.17364182  0.68793634     0.27100
C571        C  0.67111519  0.21786603  0.77023215     0.35800
C572        C  0.67170368  0.21728707  0.72292942     0.35800
C573        C  0.49384318  0.19110987  0.77142408     0.35800
C574        C  0.49220207  0.18373623  0.72444025     0.35800
C575        C  0.59320798  0.17983790  0.83553853    -0.21700
C576        C  0.55167661  0.17636131  0.83643675    -0.21700
C577        C  0.58969451  0.16578487  0.66120560    -0.21700
C578        C  0.54558296  0.15565372  0.66220880    -0.21700
C579        C  0.71542772  0.23399325  0.76193561    -0.22800
C580        C  0.71585765  0.23396152  0.73190476    -0.22800
C581        C  0.45628471  0.19234502  0.76166161    -0.22800
C582        C  0.45527465  0.18775980  0.73185304    -0.22800
C583        C  0.65490845  0.20662841  0.79909844    -0.18100
C584        C  0.50484406  0.18970773  0.80100152    -0.18100
C585        C  0.50015827  0.17237712  0.69639559    -0.18100
C586        C  0.65586912  0.20544701  0.69395480    -0.18100
H587        H  0.60844840  0.17148137  0.85336767     0.14800
H588        H  0.52931497  0.16496688  0.85501314     0.14800
H589        H  0.60474095  0.15629482  0.64403181     0.14800
H590        H  0.52026820  0.13722419  0.64573662     0.14800
H591        H  0.74412611  0.24329798  0.77608582     0.13100
H592        H  0.74490603  0.24313488  0.71830123     0.13100
H593        H  0.43144191  0.19480774  0.77468463     0.13100
H594        H  0.42949204  0.18611747  0.71735988     0.13100
H595        H  0.58760513  0.21813969  0.77210097     0.26300
H596        H  0.58689264  0.21446252  0.72083948     0.26300
C597        C  0.05485271  0.38393308  0.52841724     0.03300
C598        C  0.06739372  0.40890619  0.50235124    -0.12900
C599        C  0.99915216  0.35940091  0.98586382     0.00800
C600        C  0.99763258  0.31807623  0.98796685    -0.11400
C601        C  0.07557291  0.33280577  0.50714076     0.03300
C602        C  0.06002446  0.34638094  0.53077127    -0.10800
H603        H  0.06234802  0.43727068  0.50013743     0.08900
H604        H  0.98949276  0.29708749  0.96880426     0.06400
H605        H  0.05121180  0.32707714  0.55080040     0.06300
C606        C  0.98820669  0.83665382  0.52100683     0.03300
C607        C  0.00208460  0.82208268  0.49673990    -0.12900
C608        C  0.04067283  0.85737035  0.97264081     0.00800
C609        C  0.03962237  0.89721108  0.97033250    -0.11400
C610        C  0.99586544  0.89955866  0.49175324     0.03300
C611        C  0.98569488  0.87596335  0.51844705    -0.10800
H612        H  0.00628673  0.79317225  0.49880974     0.08900
H613        H  0.02993678  0.90598827  0.94988771     0.06400
H614        H  0.97696287  0.88876401  0.53732949     0.06300
N615        N  0.97588641  0.58153669  0.70507247    -0.36400
N616        N  0.98007383  0.64300125  0.74856248    -0.57000
N617        N  0.96955254  0.57841004  0.79473489    -0.36400
N618        N  0.96943797  0.51874493  0.75127264    -0.57000
C619        C  0.98581578  0.61721167  0.68773945     0.27100
C620        C  0.98460303  0.55355719  0.68963171     0.27100
C621        C  0.98161661  0.61535313  0.81095058     0.27100
C622        C  0.97319846  0.54850600  0.81213197     0.27100
C623        C  0.97889238  0.66579815  0.72480458     0.35800
C624        C  0.97965959  0.66607819  0.77213037     0.35800
C625        C  0.96531741  0.49405250  0.72753623     0.35800
C626        C  0.95951584  0.49134106  0.77460384     0.35800
C627        C  0.99970844  0.61107141  0.66067926    -0.21700
C628        C  0.99986331  0.57152785  0.66205436    -0.21700
C629        C  0.99135061  0.60801689  0.83923295    -0.21700
C630        C  0.98646456  0.56622514  0.83987085    -0.21700
C631        C  0.97839775  0.70390634  0.73335762    -0.22800
C632        C  0.97916611  0.70423537  0.76328525    -0.22800
C633        C  0.95262755  0.45067131  0.73578268    -0.22800
C634        C  0.94875300  0.44891058  0.76564185    -0.22800
C635        C  0.98205089  0.65482780  0.69551809    -0.18100
C636        C  0.97673779  0.51099766  0.69884509    -0.18100
C637        C  0.96464235  0.50543464  0.80395191    -0.18100
C638        C  0.98297839  0.65517190  0.80149666    -0.18100
H639        H  0.00916485  0.63281271  0.64182642     0.14800
H640        H  0.00942991  0.55731782  0.64441999     0.14800
H641        H  0.00112203  0.63033104  0.85773745     0.14800
H642        H  0.99234681  0.55084540  0.85870962     0.14800
H643        H  0.97891196  0.72960366  0.71953163     0.13100
H644        H  0.98003543  0.73010886  0.77692763     0.13100
H645        H  0.94762123  0.42340793  0.72178496     0.13100
H646        H  0.94033472  0.42011913  0.77925697     0.13100
H647        H  0.95966577  0.57434005  0.72504592     0.26300
H648        H  0.95596383  0.57269786  0.77387705     0.26300
O649        O  0.95598645  0.05417297  0.98440476    -0.88200
C650        C  0.00447463  0.16370302  0.54005149     0.87800
Mg651      Mg  0.98131121  0.00845960  0.98454093     1.58100
O652        O  0.04206867  0.18985531  0.98344610    -0.87900
O653        O  0.95575720  0.10464917  0.95600158    -0.75200
C654        C  0.17251647  0.08028641  0.51220669     0.92900
O655        O  0.95531662  0.05259011  0.54362784    -0.75100
O656        O  0.13320593  0.04944352  0.51903245    -0.82600
Mg657      Mg  0.92774477  0.08480048  0.51182818     1.58000
C658        C  0.17994156  0.28245173  0.99068034     0.92800
O659        O  0.86877568  0.06770307  0.00446685    -0.80800
H660        H  0.04217037  0.20364000  0.94105836    -0.06200
C661        C  0.11418342  0.14872479  0.54316051     0.87800
O662        O  0.03899932  0.05281032  0.95349359    -0.75300
O663        O  0.98906685  0.14873049  0.51559829    -0.88100
O664        O  0.14268231  0.27667955  0.00008053    -0.80900
C665        C  0.07102338  0.28849709  0.50744290     0.92900
C666        C  0.86362022  0.09965710  0.99529785     0.92800
Mg667      Mg  0.13751881  0.17533350  0.98075311     1.58000
O668        O  0.18057235  0.11805557  0.50237068    -0.80800
O669        O  0.09020390  0.18905591  0.95313435    -0.75100
O670        O  0.03193468  0.25493691  0.50357694    -0.80900
O671        O  0.86415735  0.01794496  0.50579959    -0.82600
O672        O  0.08001629  0.00342971  0.99870946    -0.80900
C673        C  0.05767418  0.19518815  0.95865195     0.87200
O674        O  0.09212055  0.10397257  0.98052194    -0.88100
O675        O  0.11636213  0.16366910  0.51836796    -0.88200
O676        O  0.09481475  0.10703808  0.54792459    -0.75200
Mg677      Mg  0.97120716  0.16419845  0.98520789     1.58000
O678        O  0.10569947  0.28476571  0.51019170    -0.82600
H679        H  0.94065025  0.04309049  0.94200561    -0.06300
O680        O  0.00003943  0.03942786  0.51745532    -0.87900
H681        H  0.98877012  0.02256138  0.55965609    -0.06200
H682        H  0.09960577  0.10003652  0.93760286    -0.06400
C683        C  0.98170453  0.03722431  0.54094523     0.87200
C684        C  0.94985482  0.06587951  0.96020360     0.87800
C685        C  0.07827024  0.08617854  0.95653485     0.87800
H686        H  0.12750340  0.17163185  0.56135501    -0.06300
O687        O  0.04648714  0.18953037  0.54418123    -0.75400
Mg688      Mg  0.06537424  0.04509904  0.51874597     1.58000
H689        H  0.98179396  0.15424182  0.55839906    -0.06300
C690        C  0.85934751  0.97938553  0.50239304     0.92800
O691        O  0.00746357  0.96027616  0.98685646    -0.82600
C692        C  0.04613820  0.96554531  0.99240324     0.92900
O693        O  0.89668161  0.13753590  0.98818872    -0.82600
Mg694      Mg  0.11019270  0.22211923  0.51518463     1.58200
O695        O  0.89255400  0.97315311  0.49916116    -0.80900
O696        O  0.18542579  0.25019434  0.98301328    -0.82600
C697        C  0.96596796  0.72519417  0.85800823    -0.11200
C698        C  0.00899130  0.74802340  0.87078846     0.15300
C699        C  0.04337771  0.74090082  0.86013656     0.02200
C700        C  0.03471134  0.71322387  0.83604879    -0.15600
C701        C  0.99125645  0.68890026  0.82414764    -0.10400
C702        C  0.95637888  0.69470308  0.83538831     0.08900
C703        C  0.01622045  0.77708519  0.89613474     0.10000
S704        S  0.09776617  0.76320391  0.87750436    -0.24700
H705        H  0.06122243  0.70801950  0.82777360     0.20200
S706        S  0.89908585  0.66380305  0.82222634    -0.30400
H707        H  0.93931268  0.73005935  0.86641469     0.10500
C708        C  0.04775075  0.82327765  0.89556086     0.03800
C709        C  0.05535556  0.84849753  0.92096224    -0.12700
C710        C  0.03071185  0.82888004  0.94653016    -0.08400
C711        C  0.99693073  0.78323553  0.94626031     0.07200
C712        C  0.99088048  0.75767410  0.92138339    -0.13500
S713        S  0.07704853  0.85042201  0.86231644    -0.30400
H714        H  0.08046134  0.88374346  0.92094275     0.11500
S715        S  0.95862333  0.75615493  0.97604509    -0.27500
H716        H  0.96573371  0.72238618  0.92154371     0.08700
H717        H  0.89949681  0.62461881  0.81489492     0.27100
H718        H  0.10440499  0.89322268  0.87429903     0.21900
H719        H  0.95674189  0.79420387  0.98450568     0.27200
H720        H  0.08275896  0.76280106  0.90605608     0.16100
C721        C  0.94958485  0.74282509  0.57717472    -0.11200
C722        C  0.97684258  0.76560400  0.60127382     0.15300
C723        C  0.00444755  0.81270303  0.59973374     0.02200
C724        C  0.00607086  0.83532620  0.57381395    -0.15600
C725        C  0.97996634  0.81227071  0.54933114    -0.10400
C726        C  0.95012306  0.76554777  0.55164139     0.08900
C727        C  0.97819748  0.73889794  0.62655990     0.10000
S728        S  0.03887741  0.84578377  0.62990095    -0.24700
H729        H  0.02890536  0.87110953  0.57247364     0.20200
S730        S  0.91168962  0.73278969  0.52289441    -0.30400
H731        H  0.92807442  0.70679054  0.57810241     0.10500
C732        C  0.93932430  0.71045957  0.64292855     0.03800
C733        C  0.94170463  0.68338020  0.66501628    -0.12700
C734        C  0.98241806  0.68503388  0.67189168    -0.08400
C735        C  0.02184226  0.71530644  0.65652464     0.07200
C736        C  0.01898354  0.74079046  0.63361074    -0.13500
S737        S  0.88702067  0.70971926  0.63647837    -0.30400
H738        H  0.91179321  0.66093754  0.67725514     0.11500
S739        S  0.07674824  0.72302308  0.66480372    -0.27500
H740        H  0.04900125  0.76261060  0.62122659     0.08700
H741        H  0.90730406  0.76785668  0.51083737     0.27100
H742        H  0.86194001  0.67870732  0.65848489     0.21900
H743        H  0.06797729  0.70824197  0.69389848     0.27200
H744        H  0.01074374  0.81707424  0.65196573     0.16100
C745        C  0.02950865  0.45934926  0.65258653    -0.11200
C746        C  0.99932814  0.44343992  0.62897703     0.15300
C747        C  0.95903950  0.44488297  0.63020038     0.02200
C748        C  0.95090978  0.46416283  0.65438844    -0.15600
C749        C  0.98291669  0.48343477  0.67681963    -0.10400
C750        C  0.02224725  0.48020249  0.67620730     0.08900
C751        C  0.01247158  0.42840290  0.60272946     0.10000
S752        S  0.91795792  0.42502087  0.60109320    -0.24700
H753        H  0.92071772  0.46666216  0.65494046     0.20200
S754        S  0.06529891  0.50378635  0.70406423    -0.30400
H755        H  0.06018470  0.45772618  0.65178346     0.10500
C756        C  0.04885567  0.45912263  0.58547308     0.03800
C757        C  0.06185151  0.44362634  0.56143607    -0.14300
C758        C  0.03811467  0.39826715  0.55353017    -0.08400
C759        C  0.99985338  0.36792792  0.56994795     0.07200
C760        C  0.98815665  0.38325349  0.59479623    -0.13500
S761        S  0.07790586  0.51831482  0.59353055    -0.30400
H762        H  0.09090915  0.46693592  0.54883392     0.11500
S763        S  0.96380453  0.31058068  0.55850246    -0.27500
H764        H  0.95952201  0.36033145  0.60787415     0.08700
H765        H  0.06181113  0.54193017  0.70924673     0.27100
H766        H  0.10723621  0.53239361  0.56949198     0.21900
H767        H  0.93470113  0.29652528  0.58265284     0.27200
H768        H  0.94896461  0.43722876  0.57812574     0.16100
C769        C  0.01533700  0.43377042  0.91979383    -0.11200
C770        C  0.97622380  0.40697009  0.90339835     0.15300
C771        C  0.94577279  0.36315545  0.91351749     0.02200
C772        C  0.95377299  0.34864309  0.94043971    -0.15600
C773        C  0.99248291  0.37598412  0.95715506    -0.10400
C774        C  0.02430087  0.41860569  0.94595063     0.08900
C775        C  0.96911864  0.42664355  0.87617223     0.10000
S776        S  0.89678464  0.32362323  0.89305909    -0.24700
H777        H  0.92961425  0.31556608  0.94836984     0.20200
S778        S  0.07798763  0.45481465  0.96313240    -0.30400
H779        H  0.03949285  0.46694116  0.91196261     0.10500
C780        C  0.93310292  0.43511785  0.87313171     0.03800
C781        C  0.93109222  0.45852287  0.84851899    -0.12700
C782        C  0.96531248  0.47552884  0.82742200    -0.08400
C783        C  0.00142127  0.46719658  0.83055071     0.07200
C784        C  0.00231996  0.44210383  0.85438167    -0.13500
S785        S  0.89197053  0.42013834  0.90175512    -0.30400
H786        H  0.90402294  0.46579547  0.84638906     0.11500
S787        S  0.04865469  0.48965079  0.80585624    -0.27500
H788        H  0.03047412  0.43645457  0.85675261     0.08700
H789        H  0.08432425  0.42010248  0.97363481     0.27100
H790        H  0.86294249  0.43063271  0.88635639     0.21900
H791        H  0.04928023  0.52978052  0.79965264     0.27200
H792        H  0.91280874  0.34266199  0.86543293     0.16100
C793        C  0.34084557  0.14074788  0.89836418    -0.11200
C794        C  0.38758526  0.17073518  0.89821251     0.15300
C795        C  0.40801114  0.19602447  0.92371381     0.02200
C796        C  0.38172105  0.19063331  0.94840989    -0.15600
C797        C  0.33532223  0.15931544  0.94901654    -0.10400
C798        C  0.31490020  0.13386813  0.92354122     0.08900
C799        C  0.41440431  0.17420659  0.87163441     0.10000
S800        S  0.46782030  0.23428755  0.92674060    -0.24700
H801        H  0.39800708  0.21003181  0.96780265     0.20200
S802        S  0.25678169  0.08979509  0.92230197    -0.30400
H803        H  0.32472843  0.12113286  0.87901846     0.10500
C804        C  0.41761413  0.13739583  0.86140437     0.03800
C805        C  0.44548518  0.14291739  0.83747229    -0.12700
C806        C  0.47220620  0.18494055  0.82430901    -0.08400
C807        C  0.46870489  0.22164215  0.83439663     0.07200
C808        C  0.43912377  0.21561047  0.85730163    -0.13500
S809        S  0.38897613  0.08411381  0.88006656    -0.30400
H810        H  0.44817934  0.11484663  0.82971344     0.11500
S811        S  0.50168167  0.27723932  0.81946689    -0.27500
H812        H  0.43675975  0.24398460  0.86486377     0.08700
H813        H  0.25622831  0.07407513  0.95076281     0.27100
H814        H  0.40447905  0.06174222  0.86219794     0.21900
H815        H  0.53896684  0.27361394  0.81104342     0.27200
H816        H  0.48078778  0.20898340  0.90968998     0.16100
C817        C  0.33829806  0.05655134  0.60125515    -0.11200
C818        C  0.35160092  0.09726862  0.61541777     0.15300
C819        C  0.33031691  0.12185833  0.60821721     0.02200
C820        C  0.29976740  0.10773084  0.58515439    -0.15600
C821        C  0.28814296  0.06829277  0.56986642    -0.10400
C822        C  0.30559126  0.04104727  0.57924092     0.08900
C823        C  0.38984899  0.11522609  0.63600126     0.10000
S824        S  0.34162879  0.17223059  0.62701113    -0.24700
H825        H  0.28633585  0.12877886  0.57837430     0.20200
S826        S  0.28733765  0.98645069  0.56416212    -0.30400
H827        H  0.35389247  0.03706374  0.60712208     0.10500
C828        C  0.38821047  0.09256461  0.66198979     0.03800
C829        C  0.42488605  0.11201350  0.68117928    -0.12700
C830        C  0.46233844  0.15419777  0.67533478    -0.08400
C831        C  0.46360540  0.17719888  0.64956219     0.07200
C832        C  0.42795404  0.15686695  0.62977640    -0.13500
S833        S  0.33884767  0.04003836  0.67143876    -0.30400
H834        H  0.42439326  0.09469524  0.70104588     0.11500
S835        S  0.50917922  0.23255665  0.64097087    -0.27500
H836        H  0.42917849  0.17427630  0.60976223     0.08700
H837        H  0.24459060  0.97827425  0.55525980     0.27100
H838        H  0.35432408  0.03467382  0.69880136     0.21900
H839        H  0.52104504  0.24688493  0.66999451     0.27200
H840        H  0.35150901  0.16004338  0.65419373     0.16100
C841        C  0.70600156  0.15308855  0.84573467    -0.11200
C842        C  0.71698459  0.17945381  0.87095343     0.15300
C843        C  0.71459753  0.21904771  0.87036480     0.02200
C844        C  0.69882862  0.22987295  0.84522483    -0.15600
C845        C  0.68330401  0.20087586  0.82118648    -0.10400
C846        C  0.68821572  0.16271381  0.82113239     0.08900
C847        C  0.72894485  0.16362894  0.89772166     0.10000
S848        S  0.72787328  0.25531842  0.90151072    -0.24700
H849        H  0.69496472  0.25909282  0.84529715     0.20200
S850        S  0.67017007  0.12361716  0.79118462    -0.30400
H851        H  0.70880274  0.12325124  0.84589008     0.10500
C852        C  0.69735650  0.12347026  0.91156811     0.03800
C853        C  0.71031989  0.10882927  0.93634972    -0.12700
C854        C  0.75394907  0.13382121  0.94800237    -0.08400
C855        C  0.78488445  0.17516372  0.93475813     0.07200
C856        C  0.77233579  0.18898449  0.90946231    -0.13500
S857        S  0.64015602  0.09122901  0.89815341    -0.30400
H858        H  0.68655408  0.07737184  0.94649299     0.11500
S859        S  0.84010345  0.21283840  0.94946807    -0.27500
H860        H  0.79635804  0.22015921  0.89906497     0.08700
H861        H  0.63123464  0.12536659  0.78413572     0.27100
H862        H  0.62581658  0.05501896  0.91759565     0.21900
H863        H  0.82797378  0.20123736  0.97883526     0.27200
H864        H  0.71123410  0.22105560  0.92257198     0.16100
C865        C  0.73733481  0.15846286  0.58165842    -0.11200
C866        C  0.76144184  0.19848229  0.59737432     0.15300
C867        C  0.80467252  0.23123361  0.58727962     0.02200
C868        C  0.82137467  0.22404850  0.56110899    -0.15600
C869        C  0.79640753  0.18448823  0.54501533    -0.10400
C870        C  0.75433814  0.15095436  0.55595053     0.08900
C871        C  0.73921217  0.20454935  0.62349764     0.10000
S872        S  0.84010322  0.28285343  0.60645881    -0.24700
H873        H  0.85373716  0.24981866  0.55296722     0.20200
S874        S  0.72025856  0.09791552  0.53793031    -0.30400
H875        H  0.70450315  0.13291801  0.58933364     0.10500
C876        C  0.72365111  0.23536251  0.62364266     0.03800
C877        C  0.69815206  0.23604954  0.64738382    -0.12700
C878        C  0.68675979  0.20587734  0.67079055    -0.08400
C879        C  0.70223138  0.17491587  0.67051989     0.07200
C880        C  0.72870479  0.17510240  0.64723360    -0.13500
S881        S  0.73331975  0.27161886  0.59269953    -0.30400
H882        H  0.68559890  0.25915263  0.64733567     0.11500
S883        S  0.68770200  0.13290580  0.69843179    -0.27500
H884        H  0.73973418  0.15075837  0.64701464     0.08700
H885        H  0.75622192  0.09532594  0.52553999     0.27100
H886        H  0.71399737  0.29538133  0.60473636     0.21900
H887        H  0.64493087  0.12674283  0.70465423     0.27200
H888        H  0.82097382  0.26778650  0.63416746     0.16100
C889        C  0.75948661  0.81791812  0.90453835    -0.11200
C890        C  0.72940748  0.77163375  0.90517121     0.15300
C891        C  0.71948311  0.74915406  0.93235884     0.02200
C892        C  0.73934665  0.77335013  0.95797853    -0.15600
C893        C  0.76754662  0.82016858  0.95764855    -0.10400
C894        C  0.77729094  0.84253406  0.93026656     0.08900
C895        C  0.70774412  0.74815525  0.87736152     0.10000
S896        S  0.68039366  0.68998428  0.93613669    -0.24700
H897        H  0.73146493  0.75549150  0.97856927     0.20200
S898        S  0.80865161  0.90255776  0.92637127    -0.30400
H899        H  0.76733596  0.83543354  0.88380758     0.10500
C900        C  0.67888060  0.75857061  0.86135747     0.03800
C901        C  0.65694643  0.73384389  0.83626153    -0.12700
C902        C  0.66232599  0.69820577  0.82705505    -0.08400
C903        C  0.69217434  0.68860316  0.84254312     0.07200
C904        C  0.71502545  0.71407760  0.86717078    -0.13500
S905        S  0.66728467  0.80122195  0.87384524    -0.30400
H906        H  0.63381426  0.74084590  0.82442031     0.11500
S907        S  0.70238787  0.64420813  0.83223769    -0.27500
H908        H  0.73761521  0.70634709  0.87907206     0.08700
H909        H  0.78945769  0.91080339  0.95089403     0.27100
H910        H  0.64324226  0.80151575  0.84897050     0.21900
H911        H  0.66012278  0.61588589  0.81952782     0.27200
H912        H  0.65130189  0.68705824  0.91345348     0.16100
C913        C  0.69028303  0.80257971  0.58939131    -0.11200
C914        C  0.72041619  0.79055301  0.60138786     0.15300
C915        C  0.76178630  0.80411881  0.58735454     0.02200
C916        C  0.77206989  0.82943704  0.56179380    -0.15600
C917        C  0.74262583  0.84279136  0.55039079    -0.10400
C918        C  0.70137178  0.82941383  0.56449823     0.08900
C919        C  0.70666947  0.76277438  0.62803316     0.10000
S920        S  0.80332009  0.79142898  0.60128819    -0.24700
H921        H  0.80385693  0.83975616  0.55102327     0.20200
S922        S  0.66251074  0.84701688  0.55270256    -0.30400
H923        H  0.65828796  0.79184949  0.59998786     0.10500
C924        C  0.69693098  0.77793100  0.65399048     0.03800
C925        C  0.67632635  0.74788541  0.67704968    -0.12700
C926        C  0.66718005  0.70363813  0.67508622    -0.08400
C927        C  0.68172379  0.69015423  0.65036452     0.07200
C928        C  0.70003699  0.71939334  0.62673448    -0.13500
S929        S  0.71039455  0.83535672  0.65764880    -0.30400
H930        H  0.66582612  0.75829910  0.69627141     0.11500
S931        S  0.67592037  0.63553925  0.64728691    -0.27500
H932        H  0.70833277  0.70798905  0.60698825     0.08700
H933        H  0.69567750  0.88990252  0.54343101     0.27100
H934        H  0.69644504  0.83222556  0.68680409     0.21900
H935        H  0.67733229  0.62864635  0.67746431     0.27200
H936        H  0.79324215  0.79192005  0.63094197     0.16100
C937        C  0.38436308  0.47250349  0.84567487    -0.11200
C938        C  0.40242400  0.46205802  0.86994521     0.15300
C939        C  0.44739465  0.47147712  0.86936509     0.02200
C940        C  0.47330061  0.49120958  0.84455626    -0.15600
C941        C  0.45620209  0.50433582  0.82102775    -0.10400
C942        C  0.41112891  0.49479613  0.82160209     0.08900
C943        C  0.37393778  0.44280578  0.89587113     0.10000
S944        S  0.47448237  0.46174339  0.90008000    -0.24700
H945        H  0.50808866  0.49908158  0.84429714     0.20200
S946        S  0.38646645  0.51205363  0.79323444    -0.30400
H947        H  0.34976016  0.46518770  0.84616411     0.10500
C948        C  0.35987315  0.46793613  0.91220376     0.03800
C949        C  0.33187114  0.44818855  0.93620581    -0.12700
C950        C  0.31907122  0.40446655  0.94496254    -0.08400
C951        C  0.33511308  0.38012259  0.92934333     0.07200
C952        C  0.36141276  0.39918595  0.90451896    -0.13500
S953        S  0.37876394  0.52564177  0.90317057    -0.30400
H954        H  0.31970213  0.46685299  0.94822084     0.11500
S955        S  0.32526519  0.32585528  0.94054282    -0.27500
H956        H  0.37314166  0.38035625  0.89221094     0.08700
H957        H  0.42590837  0.55235298  0.78647419     0.27100
H958        H  0.35708040  0.53395254  0.92621721     0.21900
H959        H  0.32438837  0.33314163  0.97065143     0.27200
H960        H  0.45132544  0.47075254  0.92175772     0.16100
C961        C  0.34672520  0.39174118  0.59515404    -0.11200
C962        C  0.39403268  0.41594488  0.59509052     0.15300
C963        C  0.41676423  0.41536525  0.56957707     0.02200
C964        C  0.39197277  0.39175611  0.54488623    -0.15600
C965        C  0.34463375  0.37021339  0.54418100    -0.10400
C966        C  0.32194850  0.37048748  0.56991039     0.08900
C967        C  0.41852342  0.44333091  0.62123763     0.10000
S968        S  0.47729267  0.44620500  0.56639339    -0.24700
H969        H  0.40999423  0.39197406  0.52548818     0.20200
S970        S  0.26199119  0.34847263  0.57145138    -0.30400
H971        H  0.32891318  0.39176022  0.61460509     0.10500
C972        C  0.41238836  0.47871186  0.63085860     0.03800
C973        C  0.43711000  0.50472067  0.65491254    -0.12700
C974        C  0.46955865  0.49777567  0.66883574    -0.08400
C975        C  0.47591925  0.46261196  0.65912831     0.07200
C976        C  0.44963110  0.43516690  0.63604283    -0.13500
S977        S  0.37519752  0.49280772  0.61149795    -0.30400
H978        H  0.43236318  0.53169513  0.66240244     0.11500
S979        S  0.51742035  0.45146069  0.67503711    -0.27500
H980        H  0.45453117  0.40810575  0.62890314     0.08700
H981        H  0.25908661  0.36448043  0.54371435     0.27100
H982        H  0.38374276  0.52992954  0.62861812     0.21900
H983        H  0.54894903  0.49606201  0.68203727     0.27200
H984        H  0.48371800  0.48329356  0.58273942     0.16100
loop_ 
_geom_bond_atom_site_label_1 
_geom_bond_atom_site_label_2 
_geom_bond_distance 
_geom_bond_site_symmetry_2 
_ccdc_geom_bond_type 
C1            C2   1.405       .  A
C1            C6   1.401   1_554  A
C1          C473   1.489       .  S
C2          C495   1.410   1_554  A
C2            H7   1.084       .  S
C3            C4   1.395       .  A
C3          C494   1.408       .  A
C3          C166   1.468       .  S
C4            C5   1.403       .  A
C4            H8   1.084       .  S
C5          C498   1.408       .  A
C5          C458   1.487       .  S
C6          C497   1.402       .  A
C6            H9   1.084       .  S
C10          C11   1.395       .  A
C10         C507   1.406       .  A
C10         C425   1.479       .  S
C11         C504   1.391       .  A
C11          H16   1.085       .  S
C12          C13   1.409       .  A
C12         C503   1.391       .  A
C12         C690   1.462       .  S
C13          C14   1.410       .  A
C13          H17   1.084       .  S
C14          C15   1.407       .  A
C14         C401   1.493       .  S
C15         C502   1.403       .  A
C15          H18   1.084       .  S
N19          C24   1.353       .  A
N19          C23   1.355       .  A
N19          H51   1.039       .  S
N20          C27   1.352       .  A
N20          C28   1.350       .  A
N21          C26   1.356       .  A
N21          C25   1.354       .  A
N21          H52   1.038       .  S
N22          C29   1.348       .  A
N22          C30   1.351       .  A
C23          C31   1.387       .  A
C23          C39   1.417       .  A
C24          C40   1.417       .  A
C24          C32   1.388       .  A
C25          C33   1.390       .  A
C25          C42   1.421       .  A
C26          C41   1.417       .  A
C26          C34   1.385       .  A
C27          C39   1.413       .  A
C27          C35   1.385       .  A
C28          C42   1.413       .  A
C28          C36   1.387       .  A
C29          C37   1.388       .  A
C29          C40   1.411       .  A
C30          C38   1.385       .  A
C30          C41   1.410       .  A
C31          C32   1.370       .  A
C31          H43   1.082       .  S
C32          H44   1.082       .  S
C33          C34   1.372       .  A
C33          H45   1.082       .  S
C34          H46   1.082       .  S
C35          C36   1.373       .  A
C35          H47   1.082       .  S
C36          H48   1.082       .  S
C37          C38   1.371       .  A
C37          H49   1.082       .  S
C38          H50   1.082       .  S
C39         C482   1.493       .  S
C40         C434   1.480       .  S
C41         C410   1.492       .  S
C42         C449   1.485       .  S
C53          C54   1.406       .  A
C53          C58   1.406       .  A
C53         C362   1.483       .  S
C54          C55   1.398       .  A
C54          H59   1.083       .  S
C55         C548   1.410       .  A
C55         C174   1.470       .  S
C56          C57   1.407       .  A
C56         C547   1.408   1_554  A
C56          H60   1.084       .  S
C57         C550   1.405   1_554  A
C57         C377   1.488       .  S
C58         C549   1.401       .  A
C58          H61   1.084       .  S
C62          C63   1.407       .  A
C62          C67   1.402       .  A
C62         C305   1.489       .  S
C63          C64   1.407       .  A
C63          H68   1.084       .  S
C64         C557   1.394       .  A
C64         C654   1.465       .  S
C65          C66   1.397       .  A
C65         C556   1.394       .  A
C65          H69   1.085       .  S
C66         C559   1.403       .  A
C66         C329   1.472       .  S
C67         C558   1.405       .  A
C67          H70   1.084       .  S
N71          C76   1.356       .  A
N71          C75   1.349       .  A
N71         H103   1.039       .  S
N72          C79   1.348       .  A
N72          C80   1.352       .  A
N73          C78   1.345       .  A
N73          C77   1.353       .  A
N73         H104   1.039       .  S
N74          C81   1.353       .  A
N74          C82   1.350       .  A
C75          C83   1.388       .  A
C75          C91   1.416       .  A
C76          C92   1.418       .  A
C76          C84   1.388       .  A
C77          C85   1.388       .  A
C77          C94   1.415       .  A
C78          C93   1.408       .  A
C78          C86   1.386       .  A
C79          C91   1.412       .  A
C79          C87   1.387       .  A
C80          C94   1.413       .  A
C80          C88   1.385       .  A
C81          C89   1.385       .  A
C81          C92   1.414       .  A
C82          C90   1.387       .  A
C82          C93   1.413       .  A
C83          C84   1.372       .  A
C83          H95   1.082       .  S
C84          H96   1.082       .  S
C85          C86   1.376       .  A
C85          H97   1.082   1_545  S
C86          H98   1.083   1_545  S
C87          C88   1.376       .  A
C87          H99   1.082       .  S
C88         H100   1.082       .  S
C89          C90   1.376       .  A
C89         H101   1.082       .  S
C90         H102   1.082       .  S
C91         C353   1.474       .  S
C92         C314   1.494       .  S
C93         C338   1.475       .  S
C94         C386   1.491       .  S
C105        C106   1.407       .  A
C105        C110   1.399       .  A
C105        C266   1.478       .  S
C106        C599   1.405   1_454  A
C106        H111   1.084       .  S
C107        C108   1.406       .  A
C107        C598   1.406       .  A
C107        C281   1.492       .  S
C108        C601   1.404       .  A
C108        H112   1.084       .  S
C109        C110   1.394       .  A
C109        C600   1.409   1_454  A
C109        C173   1.467       .  S
C110        H113   1.084       .  S
C114        C115   1.407   1_554  A
C114        C119   1.407       .  A
C114        C233   1.495       .  S
C115        C608   1.407       .  A
C115        H120   1.084   1_556  S
C116        C117   1.401       .  A
C116        C607   1.404       .  A
C116        C218   1.478       .  S
C117        C610   1.396   1_455  A
C117        H121   1.084       .  S
C118        C119   1.409   1_556  A
C118        C609   1.394       .  A
C118        C692   1.468       .  S
C119        H122   1.084       .  S
N123        C128   1.352       .  A
N123        C127   1.357       .  A
N123        H155   1.038       .  S
N124        C131   1.353       .  A
N124        C132   1.348       .  A
N125        C130   1.357       .  A
N125        C129   1.352       .  A
N125        H156   1.039       .  S
N126        C133   1.349       .  A
N126        C134   1.353       .  A
C127        C135   1.385       .  A
C127        C143   1.417       .  A
C128        C144   1.419       .  A
C128        C136   1.390       .  A
C129        C137   1.389       .  A
C129        C146   1.418       .  A
C130        C145   1.417       .  A
C130        C138   1.386       .  A
C131        C143   1.413       .  A
C131        C139   1.385       .  A
C132        C146   1.412       .  A
C132        C140   1.387       .  A
C133        C141   1.388       .  A
C133        C144   1.413       .  A
C134        C142   1.384       .  A
C134        C145   1.411       .  A
C135        C136   1.370       .  A
C135        H147   1.082       .  S
C136        H148   1.082       .  S
C137        C138   1.371       .  A
C137        H149   1.082       .  S
C138        H150   1.082       .  S
C139        C140   1.374       .  A
C139        H151   1.082       .  S
C140        H152   1.082       .  S
C141        C142   1.372       .  A
C141        H153   1.082       .  S
C142        H154   1.082       .  S
C143        C242   1.500       .  S
C144        C257   1.478       .  S
C145        C290   1.493       .  S
C146        C209   1.483       .  S
O157       Mg159   2.168       .  S
O157       Mg657   2.167       .  S
O157        C192   1.235       .  S
C158        H197   1.081       .  S
C158        O171   1.233       .  S
C158        O195   1.265   1_655  A
Mg159       O680   2.161   1_655  S
Mg159       O199   2.294   1_545  S
Mg159       O170   2.300   1_655  S
Mg159       O695   2.289   1_545  S
O160       Mg185   2.158       .  S
O160       Mg694   2.150       .  S
O160        C181   1.233       .  S
O161        C192   1.271       .  A
O161       Mg185   2.312   1_655  S
C162        C556   1.472       .  S
C162        O164   1.274       .  A
C162        O176   1.272   1_554  A
O163        C191   1.268   1_655  A
O163       Mg165   2.298       .  S
O164       Mg196   2.270       .  S
Mg165       O171   2.136       .  S
Mg165       O649   2.176   1_554  S
Mg165       O179   2.233   1_545  S
Mg165       O659   2.301       .  S
C166        O204   1.273       .  A
C166        O172   1.272       .  A
O167        C174   1.272       .  A
O167       Mg657   2.300       .  S
H168        C181   1.081       .  S
C169        H194   1.081       .  S
C169        O183   1.232       .  S
C169        O184   1.266       .  A
O170        C193   1.269       .  A
O171       Mg677   2.178   1_554  S
O172       Mg694   2.286       .  S
C173        O186   1.272       .  A
C173        O178   1.271   1_455  A
C174        O201   1.268       .  A
Mg175       O182   2.160       .  S
Mg175       O675   2.167       .  S
Mg175       O177   2.306       .  S
Mg175       O204   2.287       .  S
Mg175       O668   2.288       .  S
O176       Mg667   2.290       .  S
O177        C181   1.268       .  A
O178       Mg677   2.279   1_554  S
O179        C198   1.270       .  A
O180        C200   1.270       .  A
O180       Mg688   2.274   1_565  S
O182       Mg688   2.182       .  S
O182        C193   1.234       .  S
O183       Mg202   2.154       .  S
O183       Mg667   2.185   1_554  S
O184       Mg196   2.288       .  S
Mg185       O663   2.148   1_455  S
Mg185       O201   2.264   1_455  S
Mg185       O670   2.281       .  S
O186       Mg202   2.262       .  S
H187        C192   1.081       .  S
O188       Mg196   2.157       .  S
O188       Mg651   2.177   1_454  S
O188        C191   1.234       .  S
H189        C191   1.081       .  S
H190        C193   1.081       .  S
O195       Mg202   2.284       .  S
Mg196       O674   2.179   1_554  S
Mg196       O672   2.290   1_554  S
C198        C504   1.466       .  S
C198        O203   1.271       .  A
O199        C200   1.273   1_655  A
C200        C610   1.470   1_455  S
Mg202       O652   2.173   1_554  S
Mg202       O664   2.262       .  S
O203       Mg651   2.286   1_564  S
C205        C206   1.401       .  A
C205        C210   1.394       .  A
C205        H215   1.084       .  S
C206        C207   1.413       .  A
C206        C211   1.474       .  S
C207        C208   1.397       .  A
C207        S212   1.805       .  S
C208        C209   1.404       .  A
C208        H213   1.084       .  S
C209        C210   1.413       .  A
C210        S214   1.805       .  S
C211        C216   1.407       .  A
C211        C220   1.401       .  A
S212        H228   1.406       .  S
S214        H225   1.406       .  S
C216        C217   1.401       .  A
C216        S221   1.805       .  S
C217        C218   1.407       .  A
C217        H222   1.083       .  S
C218        C219   1.413       .  A
C219        C220   1.394       .  A
C219        S223   1.803   1_455  S
C220        H224   1.084       .  S
S221        H226   1.406       .  S
S223        H227   1.406       .  S
C229        C230   1.402       .  A
C229        C234   1.400       .  A
C229        H239   1.084       .  S
C230        C231   1.414       .  A
C230        C235   1.493       .  S
C231        C232   1.406       .  A
C231        S236   1.799       .  S
C232        C233   1.406       .  A
C232        H237   1.084       .  S
C233        C234   1.417       .  A
C234        S238   1.800   1_455  S
C235        C240   1.413       .  A
C235        C244   1.404       .  A
S236        H252   1.407       .  S
S238        H249   1.407       .  S
C240        C241   1.407       .  A
C240        S245   1.807       .  S
C241        C242   1.406       .  A
C241        H246   1.083       .  S
C242        C243   1.415       .  A
C243        C244   1.402       .  A
C243        S247   1.804       .  S
C244        H248   1.084       .  S
S245        H250   1.407       .  S
S247        H251   1.406       .  S
C253        C254   1.405       .  A
C253        C258   1.398       .  A
C253        H263   1.084       .  S
C254        C255   1.413       .  A
C254        C259   1.476       .  S
C255        C256   1.390       .  A
C255        S260   1.805   1_455  S
C256        C257   1.400       .  A
C256        H261   1.084       .  S
C257        C258   1.410       .  A
C258        S262   1.804       .  S
C259        C264   1.410       .  A
C259        C268   1.402       .  A
S260        H276   1.407   1_655  S
S262        H273   1.406       .  S
C264        C265   1.398       .  A
C264        S269   1.808       .  S
C265        C266   1.404       .  A
C265        H270   1.082       .  S
C266        C267   1.413       .  A
C267        C268   1.399       .  A
C267        S271   1.809   1_455  S
C268        H272   1.083       .  S
S269        H274   1.407       .  S
S271        H275   1.407       .  S
C277        C278   1.403       .  A
C277        C282   1.400       .  A
C277        H287   1.084       .  S
C278        C279   1.414       .  A
C278        C283   1.490       .  S
C279        C280   1.403       .  A
C279        S284   1.804       .  S
C280        C281   1.407       .  A
C280        H285   1.083       .  S
C281        C282   1.417       .  A
C282        S286   1.805       .  S
C283        C288   1.413       .  A
C283        C292   1.404       .  A
S284        H300   1.406       .  S
S286        H297   1.407       .  S
C288        C289   1.404       .  A
C288        S293   1.808       .  S
C289        C290   1.404       .  A
C289        H294   1.083       .  S
C290        C291   1.414       .  A
C291        C292   1.402       .  A
C291        S295   1.807       .  S
C292        H296   1.084       .  S
S293        H298   1.407   1_455  S
S295        H299   1.403       .  S
C301        C302   1.406       .  A
C301        C306   1.402       .  A
C301        H311   1.084   1_545  S
C302        C303   1.417       .  A
C302        C307   1.494       .  S
C303        C304   1.402       .  A
C303        S308   1.804       .  S
C304        C305   1.405       .  A
C304        H309   1.084       .  S
C305        C306   1.413       .  A
C306        S310   1.802   1_545  S
C307        C312   1.415       .  A
C307        C316   1.405       .  A
S308        H324   1.406       .  S
S310        H321   1.407       .  S
C312        C313   1.406       .  A
C312        S317   1.808   1_545  S
C313        C314   1.404       .  A
C313        H318   1.083   1_545  S
C314        C315   1.414       .  A
C315        C316   1.402       .  A
C315        S319   1.805       .  S
C316        H320   1.084       .  S
S317        H322   1.406       .  S
S319        H323   1.404       .  S
C325        C326   1.402       .  A
C325        C330   1.396       .  A
C325        H335   1.084       .  S
C326        C327   1.411       .  A
C326        C331   1.472       .  S
C327        C328   1.396       .  A
C327        S332   1.805       .  S
C328        C329   1.403       .  A
C328        H333   1.084       .  S
C329        C330   1.412       .  A
C330        S334   1.804       .  S
C331        C336   1.410       .  A
C331        C340   1.399       .  A
S332        H348   1.406       .  S
S334        H345   1.407       .  S
C336        C337   1.400       .  A
C336        S341   1.802   1_545  S
C337        C338   1.399       .  A
C337        H342   1.083   1_545  S
C338        C339   1.415       .  A
C339        C340   1.393       .  A
C339        S343   1.807       .  S
C340        H344   1.084       .  S
S341        H346   1.407       .  S
S343        H347   1.405       .  S
C349        C350   1.401       .  A
C349        C354   1.394       .  A
C349        H359   1.084       .  S
C350        C351   1.411       .  A
C350        C355   1.471       .  S
C351        C352   1.397       .  A
C351        S356   1.805       .  S
C352        C353   1.403       .  A
C352        H357   1.084       .  S
C353        C354   1.411       .  A
C354        S358   1.808       .  S
C355        C360   1.407       .  A
C355        C364   1.399       .  A
S356        H372   1.405       .  S
S358        H369   1.402   1_545  S
C360        C361   1.397       .  A
C360        S365   1.808       .  S
C361        C362   1.407       .  A
C361        H366   1.082       .  S
C362        C363   1.417       .  A
C363        C364   1.398       .  A
C363        S367   1.803       .  S
C364        H368   1.084       .  S
S365        H370   1.407       .  S
S367        H371   1.406       .  S
C373        C374   1.403       .  A
C373        C378   1.404       .  A
C373        H383   1.084       .  S
C374        C375   1.413       .  A
C374        C379   1.486       .  S
C375        C376   1.402       .  A
C375        S380   1.804       .  S
C376        C377   1.405       .  A
C376        H381   1.084       .  S
C377        C378   1.415       .  A
C378        S382   1.804   1_545  S
C379        C384   1.410       .  A
C379        C388   1.404       .  A
S380        H396   1.405       .  S
S382        H393   1.406       .  S
C384        C385   1.403       .  A
C384        S389   1.806       .  S
C385        C386   1.403       .  A
C385        H390   1.083       .  S
C386        C387   1.414       .  A
C387        C388   1.405       .  A
C387        S391   1.804   1_545  S
C388        H392   1.084   1_545  S
S389        H394   1.407       .  S
S391        H395   1.404       .  S
C397        C398   1.406       .  A
C397        C402   1.405       .  A
C397        H407   1.084       .  S
C398        C399   1.415       .  A
C398        C403   1.493       .  S
C399        C400   1.399       .  A
C399        S404   1.805       .  S
C400        C401   1.406       .  A
C400        H405   1.084       .  S
C401        C402   1.416       .  A
C402        S406   1.803       .  S
C403        C408   1.414       .  A
C403        C412   1.405       .  A
S404        H420   1.406       .  S
S406        H417   1.407       .  S
C408        C409   1.405       .  A
C408        S413   1.807       .  S
C409        C410   1.402       .  A
C409        H414   1.083       .  S
C410        C411   1.414       .  A
C411        C412   1.401       .  A
C411        S415   1.805       .  S
C412        H416   1.084       .  S
S413        H418   1.407       .  S
S415        H419   1.405       .  S
C421        C422   1.403       .  A
C421        C426   1.398       .  A
C421        H431   1.084       .  S
C422        C423   1.410       .  A
C422        C427   1.475       .  S
C423        C424   1.391       .  A
C423        S428   1.805       .  S
C424        C425   1.405       .  A
C424        H429   1.084       .  S
C425        C426   1.414       .  A
C426        S430   1.803       .  S
C427        C432   1.411       .  A
C427        C436   1.401       .  A
S428        H444   1.407       .  S
S430        H441   1.407       .  S
C432        C433   1.403       .  A
C432        S437   1.807       .  S
C433        C434   1.404       .  A
C433        H438   1.083       .  S
C434        C435   1.412       .  A
C435        C436   1.390       .  A
C435        S439   1.807       .  S
C436        H440   1.084       .  S
S437        H442   1.407       .  S
S439        H443   1.404       .  S
C445        C446   1.405       .  A
C445        C450   1.401       .  A
C445        H455   1.084       .  S
C446        C447   1.412       .  A
C446        C451   1.480       .  S
C447        C448   1.394       .  A
C447        S452   1.805       .  S
C448        C449   1.402       .  A
C448        H453   1.084       .  S
C449        C450   1.413       .  A
C450        S454   1.805       .  S
C451        C456   1.410       .  A
C451        C460   1.401       .  A
S452        H468   1.406       .  S
S454        H465   1.404       .  S
C456        C457   1.401       .  A
C456        S461   1.808       .  S
C457        C458   1.407       .  A
C457        H462   1.082       .  S
C458        C459   1.417       .  A
C459        C460   1.397       .  A
C459        S463   1.804       .  S
C460        H464   1.084       .  S
S461        H466   1.407       .  S
S463        H467   1.407       .  S
C469        C470   1.406       .  A
C469        C474   1.404       .  A
C469        H479   1.084       .  S
C470        C471   1.414       .  A
C470        C475   1.489       .  S
C471        C472   1.396       .  A
C471        S476   1.806       .  S
C472        C473   1.405       .  A
C472        H477   1.084       .  S
C473        C474   1.416       .  A
C474        S478   1.803       .  S
C475        C480   1.413       .  A
C475        C484   1.404       .  A
S476        H492   1.406       .  S
S478        H489   1.406       .  S
C480        C481   1.404       .  A
C480        S485   1.807       .  S
C481        C482   1.405       .  A
C481        H486   1.083       .  S
C482        C483   1.415       .  A
C483        C484   1.398       .  A
C483        S487   1.804       .  S
C484        H488   1.084       .  S
S485        H490   1.407       .  S
S487        H491   1.406       .  S
C493        C494   1.410       .  A
C493        C498   1.407       .  A
C493        C965   1.499       .  S
C494        H499   1.083       .  S
C495        C496   1.395       .  A
C495        C658   1.465       .  S
C496        C497   1.400       .  A
C496        H500   1.084       .  S
C497        C950   1.474       .  S
C498        H501   1.083       .  S
C502        C503   1.397       .  A
C502        C917   1.472       .  S
C503        H508   1.085       .  S
C504        C505   1.408   1_554  A
C505        C506   1.411       .  A
C505        H509   1.083       .  S
C506        C507   1.410   1_556  A
C506        C893   1.499       .  S
C507        H510   1.083       .  S
N511        C516   1.352       .  A
N511        C515   1.356       .  A
N511        H543   1.040       .  S
N512        C519   1.352       .  A
N512        C520   1.348       .  A
N513        C518   1.355       .  A
N513        C517   1.350       .  A
N513        H544   1.039       .  S
N514        C521   1.347       .  A
N514        C522   1.352       .  A
C515        C523   1.386       .  A
C515        C531   1.416       .  A
C516        C532   1.419       .  A
C516        C524   1.389       .  A
C517        C525   1.389       .  A
C517        C534   1.415       .  A
C518        C533   1.413       .  A
C518        C526   1.386       .  A
C519        C531   1.412       .  A
C519        C527   1.385       .  A
C520        C534   1.412       .  A
C520        C528   1.387       .  A
C521        C529   1.388       .  A
C521        C532   1.412       .  A
C522        C530   1.384       .  A
C522        C533   1.410       .  A
C523        C524   1.374       .  A
C523        H535   1.081       .  S
C524        H536   1.082       .  S
C525        C526   1.372       .  A
C525        H537   1.083       .  S
C526        H538   1.082       .  S
C527        C528   1.376       .  A
C527        H539   1.082       .  S
C528        H540   1.082       .  S
C529        C530   1.376       .  A
C529        H541   1.082       .  S
C530        H542   1.082       .  S
C531        C974   1.495       .  S
C532        C926   1.484       .  S
C533        C902   1.491       .  S
C534        C941   1.480       .  S
C545        C546   1.401       .  A
C545        C550   1.407       .  A
C545        C854   1.484       .  S
C546        C547   1.398       .  A
C546        H551   1.084       .  S
C547        C666   1.471       .  S
C548        C549   1.405       .  A
C548        H552   1.084       .  S
C549        C869   1.487       .  S
C550        H553   1.084       .  S
C554        C555   1.413       .  A
C554        C559   1.405   1_556  A
C554        C797   1.496       .  S
C555        C556   1.413   1_556  A
C555        H560   1.083       .  S
C557        C558   1.402       .  A
C557        H561   1.084       .  S
C558        C821   1.475       .  S
C559        H562   1.084       .  S
N563        C568   1.359       .  A
N563        C567   1.352       .  A
N563        H595   1.039       .  S
N564        C571   1.348       .  A
N564        C572   1.353       .  A
N565        C570   1.351       .  A
N565        C569   1.357       .  A
N565        H596   1.040       .  S
N566        C573   1.354       .  A
N566        C574   1.347       .  A
C567        C575   1.390       .  A
C567        C583   1.421       .  A
C568        C584   1.417       .  A
C568        C576   1.385       .  A
C569        C577   1.385       .  A
C569        C586   1.416       .  A
C570        C585   1.416       .  A
C570        C578   1.389       .  A
C571        C583   1.413       .  A
C571        C579   1.387       .  A
C572        C586   1.414       .  A
C572        C580   1.385       .  A
C573        C581   1.384       .  A
C573        C584   1.412       .  A
C574        C582   1.388       .  A
C574        C585   1.413       .  A
C575        C576   1.371       .  A
C575        H587   1.082       .  S
C576        H588   1.081       .  S
C577        C578   1.374       .  A
C577        H589   1.082       .  S
C578        H590   1.082       .  S
C579        C580   1.376       .  A
C579        H591   1.082       .  S
C580        H592   1.082       .  S
C581        C582   1.374       .  A
C581        H593   1.082       .  S
C582        H594   1.083       .  S
C583        C845   1.483       .  S
C584        C806   1.500       .  S
C585        C830   1.478       .  S
C586        C878   1.500       .  S
C597        C598   1.407       .  A
C597        C602   1.401       .  A
C597        C758   1.483       .  S
C598        H603   1.083       .  S
C599        C600   1.407       .  A
C599        C773   1.495       .  S
C600        H604   1.084       .  S
C601        C602   1.393       .  A
C601        C665   1.461       .  S
C602        H605   1.083       .  S
C606        C607   1.404   1_655  A
C606        C611   1.410       .  A
C606        C725   1.493       .  S
C607        H612   1.084       .  S
C608        C609   1.401       .  A
C608        C710   1.479       .  S
C609        H613   1.084       .  S
C610        C611   1.412       .  A
C611        H614   1.084       .  S
N615        C620   1.352       .  A
N615        C619   1.357       .  A
N615        H647   1.036       .  S
N616        C623   1.354       .  A
N616        C624   1.350       .  A
N617        C622   1.358       .  A
N617        C621   1.353       .  A
N617        H648   1.036       .  S
N618        C625   1.348       .  A
N618        C626   1.352       .  A
C619        C627   1.386       .  A
C619        C635   1.418       .  A
C620        C636   1.419       .  A
C620        C628   1.389       .  A
C621        C629   1.390       .  A
C621        C638   1.421       .  A
C622        C637   1.418       .  A
C622        C630   1.385       .  A
C623        C635   1.415       .  A
C623        C631   1.386       .  A
C624        C638   1.415       .  A
C624        C632   1.388       .  A
C625        C633   1.387       .  A
C625        C636   1.411       .  A
C626        C634   1.385       .  A
C626        C637   1.412       .  A
C627        C628   1.372       .  A
C627        H639   1.081   1_655  S
C628        H640   1.082   1_655  S
C629        C630   1.369       .  A
C629        H641   1.081   1_655  S
C630        H642   1.082       .  S
C631        C632   1.371       .  A
C631        H643   1.082       .  S
C632        H644   1.082       .  S
C633        C634   1.373       .  A
C633        H645   1.082       .  S
C634        H646   1.082       .  S
C635        C734   1.497       .  S
C636        C749   1.479       .  S
C637        C782   1.497       .  S
C638        C701   1.481       .  S
O649       Mg651   2.155       .  S
O649        C684   1.232       .  S
C650        H689   1.081   1_455  S
C650        O663   1.235   1_455  S
C650        O687   1.272       .  A
Mg651       O691   2.259   1_645  S
Mg651       O662   2.292   1_655  S
O652       Mg677   2.133   1_455  S
O652        C673   1.232       .  S
O653        C684   1.266       .  A
O653       Mg677   2.288       .  S
C654        O656   1.269       .  A
C654        O668   1.273       .  A
O655        C683   1.268       .  A
O655       Mg657   2.301       .  S
O656       Mg688   2.259       .  S
Mg657       O663   2.161       .  S
Mg657       O671   2.261       .  S
C658        O696   1.273       .  A
C658        O664   1.270   1_556  A
O659        C666   1.274   1_554  A
H660        C673   1.081       .  S
C661        H686   1.081       .  S
C661        O675   1.233       .  S
C661        O676   1.266       .  A
O662        C685   1.267       .  A
C665        O678   1.267       .  A
C665        O670   1.270       .  A
C666        O693   1.271       .  A
Mg667       O674   2.157       .  S
Mg667       O669   2.284       .  S
Mg667       O696   2.267       .  S
O669        C673   1.265       .  A
O671        C690   1.269   1_545  A
O672        C692   1.273   1_545  A
O674        C685   1.232       .  S
O675       Mg694   2.141       .  S
O676       Mg688   2.287       .  S
Mg677       O693   2.247       .  S
O678       Mg694   2.260       .  S
H679        C684   1.081       .  S
O680       Mg688   2.153       .  S
O680        C683   1.232   1_455  S
H681        C683   1.081       .  S
H682        C685   1.081       .  S
O687       Mg694   2.315       .  S
C690        O695   1.273       .  A
O691        C692   1.271       .  A
C697        C698   1.404   1_655  A
C697        C702   1.397       .  A
C697        H707   1.084       .  S
C698        C699   1.413       .  A
C698        C703   1.475       .  S
C699        C700   1.394       .  A
C699        S704   1.805       .  S
C700        C701   1.402   1_455  A
C700        H705   1.084       .  S
C701        C702   1.411       .  A
C702        S706   1.804       .  S
C703        C708   1.409       .  A
C703        C712   1.401   1_455  A
S704        H720   1.406       .  S
S706        H717   1.405       .  S
C708        C709   1.400       .  A
C708        S713   1.807       .  S
C709        C710   1.405       .  A
C709        H714   1.083       .  S
C710        C711   1.413   1_455  A
C711        C712   1.395       .  A
C711        S715   1.800       .  S
C712        H716   1.084       .  S
S713        H718   1.407       .  S
S715        H719   1.406       .  S
C721        C722   1.404       .  A
C721        C726   1.401       .  A
C721        H731   1.084       .  S
C722        C723   1.416   1_655  A
C722        C727   1.494       .  S
C723        C724   1.405       .  A
C723        S728   1.803       .  S
C724        C725   1.406   1_455  A
C724        H729   1.084       .  S
C725        C726   1.417       .  A
C726        S730   1.803       .  S
C727        C732   1.413       .  A
C727        C736   1.405   1_655  A
S728        H744   1.406       .  S
S730        H741   1.406       .  S
C732        C733   1.406       .  A
C732        S737   1.807       .  S
C733        C734   1.405       .  A
C733        H738   1.083       .  S
C734        C735   1.415   1_655  A
C735        C736   1.402       .  A
C735        S739   1.806       .  S
C736        H740   1.084       .  S
S737        H742   1.407       .  S
S739        H743   1.404       .  S
C745        C746   1.402   1_455  A
C745        C750   1.395       .  A
C745        H755   1.084       .  S
C746        C747   1.411       .  A
C746        C751   1.473   1_655  S
C747        C748   1.396       .  A
C747        S752   1.804       .  S
C748        C749   1.402       .  A
C748        H753   1.084       .  S
C749        C750   1.411   1_655  A
C750        S754   1.804       .  S
C751        C756   1.408       .  A
C751        C760   1.399   1_455  A
S752        H768   1.406       .  S
S754        H765   1.405       .  S
C756        C757   1.397       .  A
C756        S761   1.809       .  S
C757        C758   1.405       .  A
C757        H762   1.083       .  S
C758        C759   1.418   1_455  A
C759        C760   1.401       .  A
C759        S763   1.810       .  S
C760        H764   1.083       .  S
S761        H766   1.407       .  S
S763        H767   1.406       .  S
C769        C770   1.404   1_455  A
C769        C774   1.400       .  A
C769        H779   1.084       .  S
C770        C771   1.418       .  A
C770        C775   1.495       .  S
C771        C772   1.407       .  A
C771        S776   1.805       .  S
C772        C773   1.407       .  A
C772        H777   1.084       .  S
C773        C774   1.418   1_655  A
C774        S778   1.805       .  S
C775        C780   1.414       .  A
C775        C784   1.406   1_655  A
S776        H792   1.405       .  S
S778        H789   1.407       .  S
C780        C781   1.407       .  A
C780        S785   1.806       .  S
C781        C782   1.405       .  A
C781        H786   1.083       .  S
C782        C783   1.414   1_655  A
C783        C784   1.402       .  A
C783        S787   1.806       .  S
C784        H788   1.084       .  S
S785        H790   1.407       .  S
S787        H791   1.406       .  S
C793        C794   1.406       .  A
C793        C798   1.406       .  A
C793        H803   1.084       .  S
C794        C795   1.416       .  A
C794        C799   1.498       .  S
C795        C796   1.404       .  A
C795        S800   1.804       .  S
C796        C797   1.406       .  A
C796        H801   1.084       .  S
C797        C798   1.417       .  A
C798        S802   1.803       .  S
C799        C804   1.415       .  A
C799        C808   1.406       .  A
S800        H816   1.406       .  S
S802        H813   1.407       .  S
C804        C805   1.407       .  A
C804        S809   1.807       .  S
C805        C806   1.405       .  A
C805        H810   1.083       .  S
C806        C807   1.414       .  A
C807        C808   1.405       .  A
C807        S811   1.804       .  S
C808        H812   1.084       .  S
S809        H814   1.407       .  S
S811        H815   1.405       .  S
C817        C818   1.404       .  A
C817        C822   1.398       .  A
C817        H827   1.084       .  S
C818        C819   1.410       .  A
C818        C823   1.474       .  S
C819        C820   1.390       .  A
C819        S824   1.805       .  S
C820        C821   1.403       .  A
C820        H825   1.084       .  S
C821        C822   1.412       .  A
C822        S826   1.804   1_545  S
C823        C828   1.408       .  A
C823        C832   1.405       .  A
S824        H840   1.407       .  S
S826        H837   1.407       .  S
C828        C829   1.398       .  A
C828        S833   1.807       .  S
C829        C830   1.403       .  A
C829        H834   1.083       .  S
C830        C831   1.409       .  A
C831        C832   1.394       .  A
C831        S835   1.805       .  S
C832        H836   1.084       .  S
S833        H838   1.407       .  S
S835        H839   1.406       .  S
C841        C842   1.403       .  A
C841        C846   1.396       .  A
C841        H851   1.084       .  S
C842        C843   1.413       .  A
C842        C847   1.479       .  S
C843        C844   1.398       .  A
C843        S848   1.803       .  S
C844        C845   1.403       .  A
C844        H849   1.084       .  S
C845        C846   1.413       .  A
C846        S850   1.805       .  S
C847        C852   1.412       .  A
C847        C856   1.400       .  A
S848        H864   1.406       .  S
S850        H861   1.405       .  S
C852        C853   1.400       .  A
C852        S857   1.808       .  S
C853        C854   1.404       .  A
C853        H858   1.083       .  S
C854        C855   1.419       .  A
C855        C856   1.398       .  A
C855        S859   1.805       .  S
C856        H860   1.084       .  S
S857        H862   1.407       .  S
S859        H863   1.406       .  S
C865        C866   1.403       .  A
C865        C870   1.400       .  A
C865        H875   1.084       .  S
C866        C867   1.419       .  A
C866        C871   1.494       .  S
C867        C868   1.408       .  A
C867        S872   1.805       .  S
C868        C869   1.405       .  A
C868        H873   1.084       .  S
C869        C870   1.415       .  A
C870        S874   1.806       .  S
C871        C876   1.413       .  A
C871        C880   1.405       .  A
S872        H888   1.405       .  S
S874        H885   1.406       .  S
C876        C877   1.408       .  A
C876        S881   1.806       .  S
C877        C878   1.406       .  A
C877        H882   1.083       .  S
C878        C879   1.416       .  A
C879        C880   1.404       .  A
C879        S883   1.805       .  S
C880        H884   1.084       .  S
S881        H886   1.407       .  S
S883        H887   1.405       .  S
C889        C890   1.403       .  A
C889        C894   1.402       .  A
C889        H899   1.084       .  S
C890        C891   1.415       .  A
C890        C895   1.492       .  S
C891        C892   1.403       .  A
C891        S896   1.805       .  S
C892        C893   1.408       .  A
C892        H897   1.084       .  S
C893        C894   1.421       .  A
C894        S898   1.803       .  S
C895        C900   1.414       .  A
C895        C904   1.405       .  A
S896        H912   1.406       .  S
S898        H909   1.407       .  S
C900        C901   1.404       .  A
C900        S905   1.807       .  S
C901        C902   1.403       .  A
C901        H906   1.083       .  S
C902        C903   1.414       .  A
C903        C904   1.403       .  A
C903        S907   1.805       .  S
C904        H908   1.084       .  S
S905        H910   1.407       .  S
S907        H911   1.404       .  S
C913        C914   1.404       .  A
C913        C918   1.395       .  A
C913        H923   1.084       .  S
C914        C915   1.411       .  A
C914        C919   1.475       .  S
C915        C916   1.395       .  A
C915        S920   1.804       .  S
C916        C917   1.404       .  A
C916        H921   1.084       .  S
C917        C918   1.410       .  A
C918        S922   1.804       .  S
C919        C924   1.410       .  A
C919        C928   1.402       .  A
S920        H936   1.406       .  S
S922        H933   1.406       .  S
C924        C925   1.398       .  A
C924        S929   1.807       .  S
C925        C926   1.403       .  A
C925        H930   1.083       .  S
C926        C927   1.413       .  A
C927        C928   1.396       .  A
C927        S931   1.804       .  S
C928        H932   1.084       .  S
S929        H934   1.407       .  S
S931        H935   1.407       .  S
C937        C938   1.402       .  A
C937        C942   1.395       .  A
C937        H947   1.084       .  S
C938        C939   1.410       .  A
C938        C943   1.470       .  S
C939        C940   1.394       .  A
C939        S944   1.805       .  S
C940        C941   1.404       .  A
C940        H945   1.084       .  S
C941        C942   1.412       .  A
C942        S946   1.804       .  S
C943        C948   1.408       .  A
C943        C952   1.401       .  A
S944        H960   1.406       .  S
S946        H957   1.405       .  S
C948        C949   1.394       .  A
C948        S953   1.808       .  S
C949        C950   1.403       .  A
C949        H954   1.083       .  S
C950        C951   1.415       .  A
C951        C952   1.396       .  A
C951        S955   1.805       .  S
C952        H956   1.084       .  S
S953        H958   1.407       .  S
S955        H959   1.406       .  S
C961        C962   1.405       .  A
C961        C966   1.403       .  A
C961        H971   1.084       .  S
C962        C963   1.415       .  A
C962        C967   1.496       .  S
C963        C964   1.403       .  A
C963        S968   1.804       .  S
C964        C965   1.408       .  A
C964        H969   1.084       .  S
C965        C966   1.419       .  A
C966        S970   1.803       .  S
C967        C972   1.415       .  A
C967        C976   1.406       .  A
S968        H984   1.406       .  S
S970        H981   1.407       .  S
C972        C973   1.405       .  A
C972        S977   1.808       .  S
C973        C974   1.403       .  A
C973        H978   1.083       .  S
C974        C975   1.414       .  A
C975        C976   1.404       .  A
C975        S979   1.804       .  S
C976        H980   1.084       .  S
S977        H982   1.406       .  S
S979        H983   1.406       .  S
