geometry optimzed in LAMMPS
_audit_creation_date              2020-11-30 
_audit_creation_method            'lammps2cif' 
_symmetry_space_group_name_H-M    'P1' 
_symmetry_Int_Tables_number       1 
_symmetry_cell_setting            triclinic 
loop_ 
_symmetry_equiv_pos_as_xyz 
  x,y,z 
_cell_length_a                    43.41462043 
_cell_length_b                    43.40003357275575 
_cell_length_c                    43.4926387963684 
_cell_angle_alpha                 89.62249812956496 
_cell_angle_beta                  90.08050506586213 
_cell_angle_gamma                 90.0754227678046 
loop_ 
_atom_site_label 
_atom_site_type_symbol 
_atom_site_fract_x 
_atom_site_fract_y 
_atom_site_fract_z 
_atom_site_charge 
O1          O  0.02143863  0.00339359  0.07924391    -0.71400
O2          O  0.02088759  0.50053487  0.16632376    -0.71600
O3          O  0.02017626  0.45845904  0.12137269    -0.71500
O4          O  0.02227046  0.04543268  0.12413940    -0.71500
O5          O  0.47243917  0.04619215  0.12307636    -0.71500
O6          O  0.47043145  0.45899185  0.12219670    -0.71500
O7          O  0.47124396  0.00200073  0.16644690    -0.71400
O8          O  0.47151842  0.50323446  0.07896846    -0.71600
V9          V  0.02013997  0.50194797  0.12263189     1.35200
V10         V  0.47229367  0.50260350  0.12264430     1.35200
C11         C  0.49656917  0.50354335  0.06414536     0.77800
C12         C  0.49601271  0.50097960  0.18149140     0.77900
C13         C  0.99497323  0.44386078  0.12118193     0.77700
C14         C  0.99761776  0.06078293  0.12384731     0.77700
O15         O  0.47037303  0.25008443  0.16571516    -0.71400
O16         O  0.47448619  0.25355478  0.07859590    -0.71600
O17         O  0.47216551  0.20854780  0.12068778    -0.71500
O18         O  0.47265628  0.29557559  0.12334820    -0.71500
O19         O  0.02269303  0.29564666  0.12320397    -0.71500
O20         O  0.02207322  0.20842824  0.12536586    -0.71500
O21         O  0.02420540  0.25126360  0.08076608    -0.71400
O22         O  0.02073327  0.25290310  0.16792710    -0.71600
V23         V  0.47337187  0.25200657  0.12214666     1.35200
V24         V  0.02148211  0.25205420  0.12431783     1.35200
C25         C  0.99522637  0.25142572  0.18184994     0.77800
C26         C  0.99984869  0.25230124  0.06485002     0.77900
C27         C  0.49692786  0.19349868  0.12279771     0.77700
C28         C  0.49770586  0.31046218  0.12310828     0.77700
O29         O  0.22189051  0.45430677  0.12458873    -0.71400
O30         O  0.22256244  0.04135530  0.12626198    -0.71600
O31         O  0.22472464  0.49883396  0.08177348    -0.71500
O32         O  0.22003151  0.99658988  0.16914820    -0.71500
O33         O  0.27005292  0.49870496  0.17160024    -0.71500
O34         O  0.27463638  0.99675561  0.08468240    -0.71500
O35         O  0.27252149  0.04120205  0.12717037    -0.71400
O36         O  0.27164377  0.45385756  0.12926048    -0.71600
V37         V  0.22325599  0.49778942  0.12549467     1.35200
V38         V  0.27125016  0.99757063  0.12814573     1.35200
C39         C  0.24656764  0.43915537  0.12689900     0.77800
C40         C  0.24760410  0.05621079  0.12682268     0.77900
C41         C  0.25060451  0.99783494  0.06826952     0.77700
C42         C  0.24430713  0.99783430  0.18520867     0.77700
O43         O  0.21892983  0.24579871  0.16954600    -0.71400
O44         O  0.22313177  0.24999387  0.08242490    -0.71600
O45         O  0.22057309  0.20444377  0.12427122    -0.71500
O46         O  0.22155027  0.29151930  0.12770823    -0.71500
O47         O  0.27152391  0.29103641  0.12896461    -0.71500
O48         O  0.27040668  0.20397749  0.12775719    -0.71500
O49         O  0.27297576  0.24836708  0.08470061    -0.71400
O50         O  0.26892971  0.24683933  0.17179687    -0.71600
V51         V  0.22199528  0.24795230  0.12601345     1.35200
V52         V  0.26998850  0.24751605  0.12824810     1.35200
C53         C  0.24329001  0.24590881  0.18548613     0.77800
C54         C  0.24872692  0.24973843  0.06859386     0.77900
C55         C  0.24534141  0.18929738  0.12571436     0.77700
C56         C  0.24671924  0.30616092  0.12884484     0.77700
O57         O  0.02633521  0.99610336  0.82991244    -0.71400
O58         O  0.02195468  0.49721272  0.91669219    -0.71600
O59         O  0.02341603  0.45301257  0.87393857    -0.71500
O60         O  0.02489477  0.04012951  0.87269801    -0.71500
O61         O  0.47498725  0.04048410  0.87095347    -0.71500
O62         O  0.47362013  0.45300114  0.87100535    -0.71500
O63         O  0.47240033  0.99666493  0.91499173    -0.71400
O64         O  0.47619254  0.49728298  0.82759380    -0.71600
V65         V  0.02311463  0.49656062  0.87315853     1.35200
V66         V  0.47517059  0.49676825  0.87117199     1.35200
C67         C  0.50188815  0.49694530  0.81403974     0.77800
C68         C  0.49659327  0.49713531  0.93085298     0.77900
C69         C  0.99836247  0.43827925  0.87217341     0.77700
C70         C  0.00017593  0.05538793  0.87137067     0.77700
O71         O  0.47696246  0.24721460  0.91569222    -0.71400
O72         O  0.47976166  0.24398973  0.82847569    -0.71600
O73         O  0.47854288  0.20229627  0.87374256    -0.71500
O74         O  0.47802294  0.28937566  0.87041689    -0.71500
O75         O  0.02762177  0.29034108  0.87348003    -0.71500
O76         O  0.02827049  0.20290107  0.87470776    -0.71500
O77         O  0.02948680  0.24633174  0.83028071    -0.71400
O78         O  0.02652462  0.24695764  0.91747999    -0.71600
V79         V  0.47930143  0.24577865  0.87211834     1.35200
V80         V  0.02702425  0.24662798  0.87390826     1.35200
C81         C  0.00108277  0.24748105  0.93157875     0.77800
C82         C  0.00502275  0.24461630  0.81456213     0.77900
C83         C  0.50357288  0.18754385  0.87444091     0.77700
C84         C  0.50279303  0.30461435  0.87203700     0.77700
O85         O  0.23542734  0.46126914  0.87652010    -0.71400
O86         O  0.23483956  0.04858780  0.87704958    -0.71600
O87         O  0.23418914  0.50524974  0.83328781    -0.71500
O88         O  0.23552920  0.00425819  0.92007909    -0.71500
O89         O  0.28528879  0.50285100  0.92011220    -0.71500
O90         O  0.28419154  0.00780398  0.83232484    -0.71500
O91         O  0.28475160  0.04880268  0.87833669    -0.71400
O92         O  0.28537080  0.46178990  0.87388599    -0.71600
V93         V  0.23594125  0.50490795  0.87667370     1.35200
V94         V  0.28408128  0.00532880  0.87619246     1.35200
C95         C  0.26054226  0.44666008  0.87482841     0.77800
C96         C  0.25978461  0.06366359  0.87810877     0.77900
C97         C  0.25880343  0.00667105  0.81793529     0.77700
C98         C  0.26039262  0.00285902  0.93509329     0.77700
O99         O  0.23238637  0.25415843  0.91980362    -0.71400
O100        O  0.23426208  0.25740648  0.83273696    -0.71600
O101        O  0.23294384  0.21216991  0.87517515    -0.71500
O102        O  0.23381543  0.29934215  0.87779676    -0.71500
O103        O  0.28377996  0.29883812  0.87548352    -0.71500
O104        O  0.28268742  0.21173713  0.87966476    -0.71500
O105        O  0.28411361  0.25321602  0.83391840    -0.71400
O106        O  0.28222586  0.25689173  0.92111336    -0.71600
V107        V  0.23428948  0.25577851  0.87635491     1.35200
V108        V  0.28228216  0.25524934  0.87748725     1.35200
C109        C  0.25693777  0.25525030  0.93542403     0.77800
C110        C  0.25947278  0.25500390  0.81847561     0.77900
C111        C  0.25763306  0.19700648  0.87792662     0.77700
C112        C  0.25896976  0.31395815  0.87683172     0.77700
O113        O  0.99441188  0.02815884  0.41581247    -0.71400
O114        O  0.49338809  0.02676081  0.32873362    -0.71600
O115        O  0.45017498  0.02868420  0.37306272    -0.71500
O116        O  0.03745162  0.02612404  0.37183260    -0.71500
O117        O  0.03631602  0.47613378  0.37270362    -0.71500
O118        O  0.44924969  0.47859433  0.37396757    -0.71500
O119        O  0.99194071  0.47655240  0.32944851    -0.71400
O120        O  0.49337454  0.47857307  0.41722247    -0.71600
V121        V  0.49392612  0.02651797  0.37238032     1.35200
V122        V  0.49273711  0.47850551  0.37344883     1.35200
C123        C  0.49424412  0.50390596  0.43147675     0.77800
C124        C  0.49233589  0.50154109  0.31440337     0.77900
C125        C  0.43476379  0.00393646  0.37373176     0.77700
C126        C  0.05177686  0.00073535  0.37254124     0.77700
O127        O  0.49670269  0.21997189  0.41569358    -0.71400
O128        O  0.99377195  0.22393750  0.32869371    -0.71600
O129        O  0.03826444  0.22171210  0.37186209    -0.71500
O130        O  0.45091267  0.22239019  0.37400494    -0.71500
O131        O  0.45182107  0.27233948  0.37342965    -0.71500
O132        O  0.03908641  0.27171062  0.37411171    -0.71500
O133        O  0.49566859  0.27297150  0.32982807    -0.71400
O134        O  0.99553656  0.27069677  0.41738290    -0.71600
V135        V  0.99475577  0.22331796  0.37238739     1.35200
V136        V  0.99549716  0.27135314  0.37372146     1.35200
C137        C  0.99666135  0.24523903  0.43165979     0.77800
C138        C  0.99492682  0.24946955  0.31455733     0.77900
C139        C  0.05348025  0.24645401  0.37350759     0.77700
C140        C  0.43639914  0.24760909  0.37381064     0.77700
O141        O  0.20001896  0.47525044  0.37943306    -0.71400
O142        O  0.28747564  0.47522810  0.37432117    -0.71600
O143        O  0.24627243  0.47630671  0.42067338    -0.71500
O144        O  0.24103527  0.47381328  0.33350717    -0.71500
O145        O  0.24330350  0.02386148  0.33190726    -0.71500
O146        O  0.24389948  0.02625081  0.41911760    -0.71500
O147        O  0.28708607  0.02537084  0.37526151    -0.71400
O148        O  0.20004479  0.02519545  0.37580675    -0.71600
V149        V  0.24372116  0.47606897  0.37701717     1.35200
V150        V  0.24357722  0.02418470  0.37554402     1.35200
C151        C  0.18502981  0.00036288  0.37797886     0.77800
C152        C  0.30208488  0.00052072  0.37410886     0.77900
C153        C  0.24549805  0.50163955  0.43486743     0.77700
C154        C  0.24180985  0.49838488  0.31779268     0.77700
O155        O  0.20055012  0.22061172  0.37890897    -0.71400
O156        O  0.28775912  0.21992297  0.37403295    -0.71600
O157        O  0.24677014  0.21993207  0.42032051    -0.71500
O158        O  0.24134798  0.22070738  0.33287456    -0.71500
O159        O  0.24485478  0.27063639  0.33308202    -0.71500
O160        O  0.24484320  0.26983181  0.42037658    -0.71500
O161        O  0.28826179  0.26978492  0.37668292    -0.71400
O162        O  0.20112469  0.27058903  0.37621929    -0.71600
V163        V  0.24413004  0.22121375  0.37658394     1.35200
V164        V  0.24470544  0.26923944  0.37666486     1.35200
C165        C  0.18596581  0.24573500  0.37714178     0.77800
C166        C  0.30297457  0.24476580  0.37477544     0.77900
C167        C  0.24665403  0.24482448  0.43537175     0.77700
C168        C  0.24271726  0.24588680  0.31810215     0.77700
O169        O  0.50228237  0.48374696  0.66650191    -0.71400
O170        O  0.99714511  0.48507500  0.57973005    -0.71600
O171        O  0.04336304  0.48484876  0.62078909    -0.71500
O172        O  0.45611623  0.48438317  0.62586812    -0.71500
O173        O  0.45578828  0.03439613  0.62501488    -0.71500
O174        O  0.04305235  0.03470799  0.62267107    -0.71500
O175        O  0.49807078  0.03529709  0.58002818    -0.71400
O176        O  0.00078274  0.03359620  0.66754372    -0.71600
V177        V  0.99971960  0.48551090  0.62308841     1.35200
V178        V  0.99951390  0.03351745  0.62371723     1.35200
C179        C  0.00213671  0.00819876  0.68199746     0.79400
C180        C  0.99690075  0.01006250  0.56494388     0.77900
C181        C  0.05824069  0.50993149  0.62152939     0.77700
C182        C  0.44118051  0.50936445  0.62607102     0.77700
O183        O  0.00936225  0.21400301  0.58001389    -0.71400
O184        O  0.50833448  0.21564399  0.66748824    -0.71600
O185        O  0.46528521  0.21544621  0.62303217    -0.71500
O186        O  0.05286221  0.21406266  0.62440412    -0.71500
O187        O  0.05328886  0.26404371  0.62200336    -0.71500
O188        O  0.46615083  0.26543249  0.62401528    -0.71500
O189        O  0.01128935  0.26516654  0.66656647    -0.71400
O190        O  0.50828684  0.26408885  0.57922424    -0.71600
V191        V  0.50897992  0.21580220  0.62369535     1.35200
V192        V  0.50974161  0.26384835  0.62277103     1.35200
C193        C  0.50815231  0.23899202  0.56458459     0.77800
C194        C  0.50999998  0.24091553  0.68177960     0.77900
C195        C  0.45079424  0.24067997  0.62342088     0.77700
C196        C  0.06798238  0.23897556  0.62352097     0.77700
O197        O  0.20660904  0.48411617  0.62750449    -0.71400
O198        O  0.29383619  0.48552473  0.62757920    -0.71600
O199        O  0.25035232  0.48539523  0.67104321    -0.71500
O200        O  0.25014082  0.48418782  0.58394063    -0.71500
O201        O  0.24642767  0.03392906  0.58283322    -0.71500
O202        O  0.25304017  0.03528993  0.67011172    -0.71500
O203        O  0.29299454  0.03530960  0.62344515    -0.71400
O204        O  0.20593996  0.03394045  0.62939571    -0.71600
V205        V  0.25023131  0.48576451  0.62748751     1.35200
V206        V  0.24952835  0.03369757  0.62649436     1.35200
C207        C  0.19122759  0.00876428  0.62862909     0.77800
C208        C  0.30822048  0.01059736  0.62525636     0.77900
C209        C  0.25278000  0.51051984  0.68533444     0.77700
C210        C  0.24788658  0.50879745  0.56835740     0.77700
O211        O  0.25662146  0.21773155  0.58496699    -0.71400
O212        O  0.26256710  0.22068309  0.67244638    -0.71600
O213        O  0.21612860  0.21838206  0.63138533    -0.71500
O214        O  0.30301002  0.21959886  0.62605504    -0.71500
O215        O  0.30266330  0.26960755  0.62645414    -0.71500
O216        O  0.21510258  0.26828687  0.62759803    -0.71500
O217        O  0.25932729  0.27060976  0.67029045    -0.71400
O218        O  0.25805995  0.26763780  0.58328370    -0.71600
V219        V  0.25958398  0.22005235  0.62869453     1.35200
V220        V  0.25885828  0.26807616  0.62689529     1.35200
C221        C  0.25634726  0.24231973  0.56911834     0.77800
C222        C  0.26141806  0.24627430  0.68620244     0.77900
C223        C  0.20072697  0.24301612  0.62993595     0.77700
C224        C  0.31775732  0.24469191  0.62607106     0.77700
C225        C  0.40180036  0.26751947  0.63534282    -0.11900
C226        C  0.41676393  0.24149923  0.62352544     0.05100
C227        C  0.39886354  0.21676645  0.61243400    -0.07200
C228        C  0.36675322  0.21840523  0.61354581    -0.08000
C229        C  0.35178092  0.24436540  0.62543854    -0.02500
C230        C  0.36964492  0.26906401  0.63662645     0.04300
N231        N  0.35563029  0.29506469  0.65091175     0.66800
H232        H  0.41517393  0.28657652  0.64445359     0.15700
H233        H  0.35340943  0.19927200  0.60454376     0.15400
N234        N  0.41280610  0.19037438  0.59880000     0.74500
O235        O  0.34899998  0.29381550  0.67913538    -0.38900
O236        O  0.35527476  0.32071432  0.63709222    -0.38900
O237        O  0.41376100  0.16528243  0.61359059    -0.39600
O238        O  0.41834309  0.19049225  0.57032969    -0.39600
C239        C  0.11663595  0.26524804  0.63763781    -0.11900
C240        C  0.10194834  0.23927916  0.62524371     0.05100
C241        C  0.11999970  0.21418207  0.61548002    -0.07200
C242        C  0.15208584  0.21570920  0.61781859    -0.08000
C243        C  0.16676312  0.24187741  0.62977265    -0.02500
C244        C  0.14869658  0.26665000  0.64022515     0.04300
N245        N  0.16239653  0.29266354  0.65490099     0.66800
H246        H  0.10307205  0.28445667  0.64604729     0.15700
H247        H  0.16566770  0.19649235  0.60945572     0.15400
N248        N  0.10627809  0.18760156  0.60187998     0.74500
O249        O  0.16464688  0.31787273  0.64046088    -0.38900
O250        O  0.16645350  0.29215620  0.68363871    -0.38900
O251        O  0.10359205  0.18625161  0.57302737    -0.39600
O252        O  0.10254319  0.16351247  0.61785122    -0.39600
C253        C  0.39147227  0.03454123  0.61351659    -0.11900
C254        C  0.40725637  0.50963847  0.62687248     0.05100
C255        C  0.39011757  0.48547351  0.64034841    -0.07200
C256        C  0.35797637  0.48619495  0.63920046    -0.08000
C257        C  0.34217141  0.01086752  0.62541756    -0.02500
C258        C  0.35933403  0.03543057  0.61262612     0.04300
N259        N  0.34461383  0.06091310  0.59772926     0.66800
H260        H  0.40433329  0.05332614  0.60297053     0.15700
H261        H  0.34513727  0.46750386  0.64993282     0.15400
N262        N  0.40487523  0.46093812  0.65671836     0.74500
O263        O  0.34085190  0.08572445  0.61220651    -0.38900
O264        O  0.34110823  0.06069368  0.56892556    -0.38900
O265        O  0.40969866  0.46360860  0.68519897    -0.39600
O266        O  0.40701486  0.43476316  0.64446030    -0.39600
C267        C  0.10779493  0.48237679  0.62914726    -0.11900
C268        C  0.09232959  0.51000479  0.62245262     0.05100
C269        C  0.10958735  0.03713542  0.61838926    -0.07200
C270        C  0.14164276  0.03621550  0.62109132    -0.08000
C271        C  0.15712020  0.00860686  0.62783849    -0.02500
C272        C  0.13985523  0.48149752  0.63204972     0.04300
N273        N  0.15410638  0.45295299  0.64031434     0.66800
H274        H  0.09486934  0.46123251  0.63290708     0.15700
H275        H  0.15454316  0.05737139  0.61731044     0.15400
N276        N  0.09529680  0.06584293  0.61077802     0.74500
O277        O  0.15847260  0.44660140  0.66833781    -0.38900
O278        O  0.15643728  0.43193574  0.62054686    -0.38900
O279        O  0.09192860  0.08597327  0.63130119    -0.39600
O280        O  0.09153440  0.07320047  0.58290937    -0.39600
C281        C  0.25709095  0.27009394  0.51874872    -0.11900
C282        C  0.25391671  0.24210472  0.53489022     0.05100
C283        C  0.24800295  0.21504178  0.51789847    -0.07200
C284        C  0.24570419  0.21649350  0.48571035    -0.08000
C285        C  0.24887340  0.24453337  0.46961403    -0.02500
C286        C  0.25459418  0.27159796  0.48667107     0.04300
N287        N  0.25846364  0.30085058  0.47189501     0.66800
H288        H  0.26164545  0.29129008  0.53110753     0.15700
H289        H  0.24113427  0.19536438  0.47324522     0.15400
N290        N  0.24362586  0.18596369  0.53285682     0.74500
O291        O  0.23572080  0.31877238  0.46939026    -0.38900
O292        O  0.28526290  0.31107139  0.46708736    -0.38900
O293        O  0.21666349  0.17661060  0.53844958    -0.39600
O294        O  0.26588616  0.16740874  0.53501540    -0.39600
C295        C  0.24337862  0.03170262  0.48357193    -0.11900
C296        C  0.24611575  0.50292350  0.46904812     0.05100
C297        C  0.24931982  0.47627927  0.48766159    -0.07200
C298        C  0.24980469  0.47890483  0.51970918    -0.08000
C299        C  0.24702976  0.50763150  0.53418170    -0.02500
C300        C  0.24370614  0.03427681  0.51565441     0.04300
N301        N  0.24053439  0.06417938  0.52882189     0.66800
H302        H  0.24088606  0.05259265  0.46990115     0.15700
H303        H  0.25238960  0.45801832  0.53336813     0.15400
N304        N  0.25214417  0.44630043  0.47458082     0.74500
O305        O  0.26406340  0.08090955  0.53227330    -0.38900
O306        O  0.21410094  0.07596357  0.53125788    -0.38900
O307        O  0.27837504  0.43397773  0.47266939    -0.39600
O308        O  0.22779398  0.93017330  0.47080947    -0.39600
C309        C  0.49911278  0.21463056  0.48069571    -0.11900
C310        C  0.99960081  0.24387092  0.46573385     0.05100
C311        C  0.00350809  0.27066548  0.48363510    -0.07200
C312        C  0.00648681  0.26822616  0.51554802    -0.08000
C313        C  0.00602493  0.23951022  0.53064463    -0.02500
C314        C  0.50202030  0.21240753  0.51276593     0.04300
N315        N  0.50027167  0.18263566  0.52689014     0.66800
H316        H  0.49564752  0.19362384  0.46768839     0.15700
H317        H  0.00930600  0.28929731  0.52860289     0.15400
N318        N  0.00509868  0.30062036  0.46989259     0.74500
O319        O  0.47428308  0.17128462  0.53332721    -0.38900
O320        O  0.52374267  0.16551762  0.52720286    -0.38900
O321        O  0.98184668  0.31801005  0.47063553    -0.39600
O322        O  0.03097416  0.31169715  0.46255364    -0.39600
C323        C  0.38674243  0.21931536  0.37124999    -0.11900
C324        C  0.40226897  0.24761655  0.37374045     0.05100
C325        C  0.38476370  0.27494355  0.37570595    -0.07200
C326        C  0.35260965  0.27334916  0.37585515    -0.08000
C327        C  0.33709188  0.24500138  0.37370447    -0.02500
C328        C  0.35461103  0.21775660  0.37092165     0.04300
N329        N  0.34033246  0.18832999  0.36718080     0.66800
H330        H  0.39961682  0.19798207  0.36917371     0.15700
H331        H  0.33971928  0.29469166  0.37774164     0.15400
N332        N  0.39908970  0.30453169  0.37757846     0.74500
O333        O  0.33460518  0.17870056  0.34045832    -0.38900
O334        O  0.33933918  0.16976343  0.38960650    -0.38900
O335        O  0.40189569  0.32077220  0.35356918    -0.39600
O336        O  0.40323111  0.31668998  0.40353309    -0.39600
C337        C  0.13549014  0.22203631  0.39010342    -0.11900
C338        C  0.15205858  0.24597550  0.37586605     0.05100
C339        C  0.13590615  0.26971793  0.36047361    -0.07200
C340        C  0.10376191  0.26965365  0.36032570    -0.08000
C341        C  0.08725958  0.24595506  0.37481549    -0.02500
C342        C  0.10327494  0.22198576  0.38992169     0.04300
N343        N  0.08714608  0.19831479  0.40637757     0.66800
H344        H  0.14756785  0.20375035  0.40215025     0.15700
H345        H  0.09164758  0.28782605  0.34812482     0.15400
N346        N  0.15174779  0.29302605  0.34332659     0.74500
O347        O  0.08723586  0.17101244  0.39658706    -0.38900
O348        O  0.07233730  0.20477817  0.43044142    -0.38900
O349        O  0.15802121  0.28846766  0.31540077    -0.39600
O350        O  0.15417916  0.31980953  0.35417418    -0.39600
C351        C  0.99188609  0.48071805  0.51601071    -0.11900
C352        C  0.99550629  0.00934458  0.53078558     0.05100
C353        C  0.49775263  0.03645896  0.51237029    -0.07200
C354        C  0.49723309  0.03394307  0.48025683    -0.08000
C355        C  0.49459572  0.50521235  0.46564597    -0.02500
C356        C  0.99119082  0.47820940  0.48398369     0.04300
N357        N  0.98683156  0.44841606  0.47087479     0.66800
H358        H  0.98933054  0.45980526  0.52962715     0.15700
H359        H  0.49926299  0.05486605  0.46656933     0.15400
N360        N  0.50080430  0.06635040  0.52562201     0.74500
O361        O  0.00973066  0.43096599  0.46714678    -0.38900
O362        O  0.46148595  0.43716017  0.46884720    -0.38900
O363        O  0.02885081  0.07742744  0.52747135    -0.39600
O364        O  0.47708980  0.08253757  0.52990489    -0.39600
C365        C  0.35146739  0.02504912  0.38877928    -0.11900
C366        C  0.33600940  0.00134887  0.37322495     0.05100
C367        C  0.35343050  0.47898838  0.35736781    -0.07200
C368        C  0.38557544  0.48040090  0.35786963    -0.08000
C369        C  0.40087121  0.00401046  0.37358748    -0.02500
C370        C  0.38364230  0.02652564  0.38916356     0.04300
N371        N  0.39841159  0.04989940  0.40689725     0.66800
H372        H  0.33846257  0.04221092  0.40139384     0.15700
H373        H  0.39860119  0.46322696  0.34528490     0.15400
N374        N  0.33874426  0.45592037  0.33919232     0.74500
O375        O  0.40035197  0.07695148  0.39626867    -0.38900
O376        O  0.40387139  0.04504281  0.43502031    -0.38900
O377        O  0.33376983  0.46116799  0.31104671    -0.39600
O378        O  0.33692922  0.42867341  0.34932305    -0.39600
C379        C  0.10174813  0.02700001  0.38172305    -0.11900
C380        C  0.08588340  0.00002962  0.37366916     0.05100
C381        C  0.10310998  0.47294748  0.36745328    -0.07200
C382        C  0.13526592  0.47345349  0.36960703    -0.08000
C383        C  0.15094919  0.00053888  0.37773778    -0.02500
C384        C  0.13385918  0.02747071  0.38396252     0.04300
N385        N  0.14857670  0.05528186  0.39354629     0.66800
H386        H  0.08914934  0.04789360  0.38685759     0.15700
H387        H  0.14794004  0.45260801  0.36445109     0.15400
N388        N  0.08838445  0.44496074  0.35842797     0.74500
O389        O  0.15327632  0.57658971  0.37420045    -0.38900
O390        O  0.15140737  0.06075280  0.42187033    -0.38900
O391        O  0.08687787  0.43823400  0.33028384    -0.39600
O392        O  0.08280615  0.92450185  0.37888393    -0.39600
C393        C  0.28029765  0.23262632  0.77046725    -0.11900
C394        C  0.26012652  0.25339283  0.78463642     0.05100
C395        C  0.24058762  0.27175152  0.76622220    -0.07200
C396        C  0.24170036  0.26923357  0.73420561    -0.08000
C397        C  0.26150972  0.24814071  0.72003553    -0.02500
C398        C  0.28093890  0.22965132  0.73842461     0.04300
N399        N  0.30228525  0.20872992  0.72488127     0.66800
H400        H  0.29547770  0.21834896  0.78441039     0.15700
H401        H  0.22665732  0.28368415  0.72028411     0.15400
N402        N  0.22026535  0.29376696  0.77962608     0.74500
O403        O  0.32856732  0.21827887  0.71689318    -0.38900
O404        O  0.29714869  0.18013141  0.72622782    -0.38900
O405        O  0.22891545  0.32138429  0.78234717    -0.39600
O406        O  0.19219297  0.28708681  0.78316668    -0.39600
C407        C  0.28009788  0.02316283  0.76717693    -0.11900
C408        C  0.25743806  0.50726626  0.78388835     0.05100
C409        C  0.23323219  0.49263007  0.76776187    -0.07200
C410        C  0.23224874  0.49405809  0.73567338    -0.08000
C411        C  0.25456094  0.51041919  0.71910420    -0.02500
C412        C  0.27860376  0.02508188  0.73500493     0.04300
N413        N  0.30237819  0.04100406  0.71867545     0.66800
H414        H  0.29886404  0.03456853  0.77913114     0.15700
H415        H  0.21374039  0.48237168  0.72356131     0.15400
N416        N  0.20991920  0.47546775  0.78353168     0.74500
O417        O  0.30125596  0.06995020  0.71606109    -0.38900
O418        O  0.32691526  0.02702518  0.71198729    -0.38900
O419        O  0.18347975  0.48701703  0.78684352    -0.39600
O420        O  0.21387135  0.44710299  0.78869481    -0.39600
C421        C  0.28352300  0.36342343  0.86197332    -0.11900
C422        C  0.25943479  0.34786271  0.87691743     0.05100
C423        C  0.23605139  0.36500988  0.89135954    -0.07200
C424        C  0.23672124  0.39712863  0.88995744    -0.08000
C425        C  0.26066467  0.41273544  0.87485562    -0.02500
C426        C  0.28436678  0.39560353  0.86082596     0.04300
N427        N  0.30871638  0.41041086  0.84427964     0.66800
H428        H  0.30160019  0.35050735  0.85058920     0.15700
H429        H  0.21869971  0.40998532  0.90149573     0.15400
N430        N  0.21244466  0.35024306  0.90897711     0.74500
O431        O  0.33448038  0.41430542  0.85715589    -0.38900
O432        O  0.30653936  0.41362514  0.81550177    -0.38900
O433        O  0.21651062  0.34569181  0.93738217    -0.39600
O434        O  0.18586890  0.34710464  0.89764026    -0.39600
C435        C  0.23140152  0.11338257  0.88107025    -0.11900
C436        C  0.25966683  0.09779171  0.87889548     0.05100
C437        C  0.28716912  0.11524102  0.87733818    -0.07200
C438        C  0.28583719  0.14736744  0.87712895    -0.08000
C439        C  0.25760025  0.16293327  0.87894421    -0.02500
C440        C  0.23016860  0.14558433  0.88150227     0.04300
N441        N  0.20094918  0.16019574  0.88535212     0.66800
H442        H  0.21004303  0.10055584  0.88283973     0.15700
H443        H  0.30722635  0.16016512  0.87542461     0.15400
N444        N  0.31673751  0.10088597  0.87584084     0.74500
O445        O  0.18271230  0.16269352  0.86286387    -0.38900
O446        O  0.19343237  0.17082736  0.91121711    -0.38900
O447        O  0.33019739  0.09858613  0.85026568    -0.39600
O448        O  0.33158413  0.09583354  0.90032230    -0.39600
C449        C  0.02753390  0.26159481  0.76477014    -0.11900
C450        C  0.00634333  0.24303474  0.78068313     0.05100
C451        C  0.48703909  0.22322061  0.76374215    -0.07200
C452        C  0.48906743  0.22237919  0.73162634    -0.08000
C453        C  0.00972080  0.24115987  0.71587565    -0.02500
C454        C  0.02902578  0.26120082  0.73260219     0.04300
N455        N  0.05073965  0.28073799  0.71730471     0.66800
H456        H  0.04268686  0.27695646  0.77738653     0.15700
H457        H  0.47405189  0.20691052  0.71897699     0.15400
N458        N  0.46580010  0.20314124  0.77898296     0.74500
O459        O  0.04397462  0.30856135  0.71212966    -0.38900
O460        O  0.07830135  0.27201655  0.71450175    -0.38900
O461        O  0.43754172  0.20988341  0.77940572    -0.39600
O462        O  0.47422717  0.17634548  0.78660410    -0.39600
C463        C  0.49942580  0.02866380  0.76713790    -0.11900
C464        C  0.50341341  0.99962820  0.78066526     0.05100
C465        C  0.00867780  0.47419318  0.76175782    -0.07200
C466        C  0.00850504  0.47754309  0.72979106    -0.08000
C467        C  0.00349002  0.00642394  0.71602445    -0.02500
C468        C  0.49937961  0.03231603  0.73516522     0.04300
N469        N  0.49484435  0.06243475  0.72254257     0.66800
H470        H  0.49621301  0.04875559  0.78161603     0.15700
H471        H  0.01208283  0.45714376  0.71588197     0.15400
N472        N  0.01331946  0.44437593  0.77508788     0.74500
O473        O  0.46782573  0.07250134  0.71888093    -0.38900
O474        O  0.51730655  0.08084996  0.72090521    -0.38900
O475        O  0.99104878  0.42574278  0.77673715    -0.39600
O476        O  0.04036555  0.43472491  0.77957762    -0.39600
C477        C  0.02513480  0.38889361  0.88263730    -0.11900
C478        C  0.99862516  0.40419339  0.87212301     0.05100
C479        C  0.47361544  0.38612590  0.86174610    -0.07200
C480        C  0.47554932  0.35395373  0.86169031    -0.08000
C481        C  0.50207445  0.33869285  0.87227815    -0.02500
C482        C  0.02695449  0.35677014  0.88283190     0.04300
N483        N  0.05402808  0.34256286  0.89509964     0.66800
H484        H  0.04466163  0.40196328  0.89122985     0.15700
H485        H  0.45610155  0.34082165  0.85301881     0.15400
N486        N  0.44633635  0.40040221  0.85003145     0.74500
O487        O  0.07766733  0.34012383  0.87845161    -0.38900
O488        O  0.55579005  0.33757145  0.92450569    -0.38900
O489        O  0.94279915  0.40411444  0.82114465    -0.39600
O490        O  0.42352080  0.40410834  0.86755475    -0.39600
C491        C  0.02489947  0.10424726  0.88715322    -0.11900
C492        C  0.00105184  0.08929548  0.87130816     0.05100
C493        C  0.47827481  0.10663431  0.85664434    -0.07200
C494        C  0.47935231  0.13871662  0.85838731    -0.08000
C495        C  0.50318835  0.15365819  0.87419430    -0.02500
C496        C  0.02595211  0.13638005  0.88886653     0.04300
N497        N  0.04945997  0.15057960  0.90695203     0.66800
H498        H  0.04242639  0.09085407  0.89907440     0.15700
H499        H  0.46173197  0.15209981  0.84659133     0.15400
N500        N  0.45485416  0.09259224  0.83833071     0.74500
O501        O  0.04400810  0.15729642  0.93460072    -0.38900
O502        O  0.07681694  0.15127211  0.89721638    -0.38900
O503        O  0.42758804  0.09138652  0.84826397    -0.39600
O504        O  0.96033349  0.08853497  0.80967550    -0.39600
C505        C  0.22188419  0.22706653  0.26814036    -0.11900
C506        C  0.24219136  0.24645749  0.28416236     0.05100
C507        C  0.26204734  0.26607653  0.26743520    -0.07200
C508        C  0.26230317  0.26509853  0.23533890    -0.08000
C509        C  0.24215632  0.24572941  0.21931827    -0.02500
C510        C  0.22136894  0.22694925  0.23586789     0.04300
N511        N  0.20025770  0.20713292  0.22023846     0.66800
H512        H  0.20627303  0.21211613  0.28072438     0.15700
H513        H  0.27803574  0.27999479  0.22281885     0.15400
N514        N  0.28263569  0.28663730  0.28272164     0.74500
O515        O  0.20999443  0.18364252  0.20634985    -0.38900
O516        O  0.17214216  0.21428332  0.21849965    -0.38900
O517        O  0.31062019  0.27941129  0.28574498    -0.39600
O518        O  0.27433294  0.31401089  0.28767314    -0.39600
C519        C  0.27954511  0.25165989  0.02016730    -0.11900
C520        C  0.25049262  0.25116868  0.03447950     0.05100
C521        C  0.22383754  0.25228921  0.01579421    -0.07200
C522        C  0.22665458  0.25387550  0.98382932    -0.08000
C523        C  0.25562386  0.25428102  0.96951340    -0.02500
C524        C  0.28233062  0.25316923  0.98809988     0.04300
N525        N  0.31246289  0.25329325  0.97489968     0.66800
H526        H  0.30037468  0.25082934  0.03389980     0.15700
H527        H  0.20578244  0.25465807  0.97014944     0.15400
N528        N  0.19359997  0.25168396  0.02871164     0.74500
O529        O  0.32642091  0.27845506  0.97049218    -0.38900
O530        O  0.32525241  0.22822989  0.96783112    -0.38900
O531        O  0.17881566  0.27651927  0.03149696    -0.39600
O532        O  0.17967230  0.22629571  0.03161856    -0.39600
C533        C  0.22791700  0.47450315  0.23475629    -0.11900
C534        C  0.24287855  0.99836513  0.21897854     0.05100
C535        C  0.25735367  0.02195984  0.23570739    -0.07200
C536        C  0.25610277  0.02179621  0.26779815    -0.08000
C537        C  0.24155837  0.49775834  0.28380226    -0.02500
C538        C  0.22750659  0.47374004  0.26699821     0.04300
N539        N  0.21240535  0.44867828  0.28221951     0.66800
H540        H  0.21697297  0.45608906  0.22204196     0.15700
H541        H  0.26729802  0.04025378  0.28022960     0.15400
N542        N  0.27309577  0.04652072  0.22039803     0.74500
O543        O  0.18401212  0.45046427  0.28807923    -0.38900
O544        O  0.22546860  0.92315874  0.28467807    -0.38900
O545        O  0.25898609  0.57137072  0.21488238    -0.39600
O546        O  0.30209207  0.04585968  0.21865301    -0.39600
C547        C  0.23051463  0.99470640  0.98308165    -0.11900
C548        C  0.25912165  0.00092783  0.96921339     0.05100
C549        C  0.28491317  0.50521794  0.98823888    -0.07200
C550        C  0.28165045  0.50377266  0.02030598    -0.08000
C551        C  0.25298349  0.99831186  0.03417517    -0.02500
C552        C  0.22718656  0.99344694  0.01500728     0.04300
N553        N  0.19741730  0.98685238  0.02740879     0.66800
H554        H  0.21021038  0.99076492  0.96901032     0.15700
H555        H  0.30190808  0.50748788  0.03450381     0.15400
N556        N  0.31453677  0.51200198  0.97562250     0.74500
O557        O  0.17834736  0.00847782  0.03080391    -0.38900
O558        O  0.18812734  0.95931394  0.02863774    -0.38900
O559        O  0.32326521  0.53967521  0.97345892    -0.39600
O560        O  0.33396704  0.49063861  0.97263126    -0.39600
C561        C  0.22069003  0.35595218  0.11910175    -0.11900
C562        C  0.24693210  0.34012357  0.12931998     0.05100
C563        C  0.27294687  0.35710416  0.13893195    -0.07200
C564        C  0.27239275  0.38926085  0.13762676    -0.08000
C565        C  0.24619160  0.40512294  0.12722218    -0.02500
C566        C  0.22006325  0.38807214  0.11790179     0.04300
N567        N  0.19302658  0.40283208  0.10622555     0.66800
H568        H  0.20054014  0.34329750  0.11133326     0.15700
H569        H  0.29254980  0.40190342  0.14538188     0.15400
N570        N  0.29967194  0.34218199  0.15112861     0.74500
O571        O  0.19047646  0.40759579  0.07768699    -0.38900
O572        O  0.16956264  0.40506266  0.12315166    -0.38900
O573        O  0.32376074  0.34049567  0.13503116    -0.39600
O574        O  0.30093960  0.33577330  0.17944566    -0.39600
C575        C  0.22002324  0.10576630  0.11916846    -0.11900
C576        C  0.24742002  0.09025719  0.12679948     0.05100
C577        C  0.27388058  0.10768191  0.13415834    -0.07200
C578        C  0.27257006  0.13978483  0.13348092    -0.08000
C579        C  0.24533592  0.15528481  0.12553748    -0.02500
C580        C  0.21879402  0.13793543  0.11830167     0.04300
N581        N  0.19061004  0.15249954  0.10939624     0.66800
H582        H  0.19945864  0.09289185  0.11329238     0.15700
H583        H  0.29310865  0.15262268  0.13953364     0.15400
N584        N  0.30211789  0.09335047  0.14317802     0.74500
O585        O  0.18727015  0.16263503  0.08233337    -0.38900
O586        O  0.16876182  0.15461287  0.12836693    -0.38900
O587        O  0.32298192  0.08951478  0.12341308    -0.39600
O588        O  0.30891448  0.09174080  0.17134268    -0.39600
C589        C  0.47381383  0.23031338  0.26400662    -0.11900
C590        C  0.99479655  0.25059760  0.28066738     0.05100
C591        C  0.01513055  0.26993135  0.26420514    -0.07200
C592        C  0.01504473  0.26962573  0.23203422    -0.08000
C593        C  0.99431121  0.25101177  0.21576971    -0.02500
C594        C  0.47330188  0.23072934  0.23179124     0.04300
N595        N  0.45300232  0.21027616  0.21596766     0.66800
H596        H  0.45843869  0.21480195  0.27632666     0.15700
H597        H  0.03114281  0.28432246  0.21964605     0.15400
N598        N  0.03677396  0.28912354  0.27982248     0.74500
O599        O  0.46238807  0.18391258  0.20832291    -0.38900
O600        O  0.42461053  0.21631630  0.21457740    -0.38900
O601        O  0.06422374  0.28015776  0.28311626    -0.39600
O602        O  0.03011803  0.31691716  0.28490672    -0.39600
C603        C  0.47347530  0.24679203  0.01446490    -0.11900
C604        C  0.00076044  0.25157426  0.03076278     0.05100
C605        C  0.02832938  0.25556603  0.01392798    -0.07200
C606        C  0.02783063  0.25392726  0.98180754    -0.08000
C607        C  0.00033973  0.24831267  0.96568063    -0.02500
C608        C  0.47302363  0.24482854  0.98240729     0.04300
N609        N  0.44433638  0.23867534  0.96750770     0.66800
H610        H  0.45189644  0.24399901  0.02679583     0.15700
H611        H  0.04926381  0.25743680  0.96939739     0.15400
N612        N  0.05696176  0.26186409  0.02889558     0.74500
O613        O  0.43654877  0.21115368  0.96240664    -0.38900
O614        O  0.42454529  0.25981817  0.96505744    -0.38900
O615        O  0.07678144  0.24076264  0.03151458    -0.39600
O616        O  0.06469961  0.28941950  0.03388624    -0.39600
C617        C  0.96738738  0.99630761  0.23112073    -0.11900
C618        C  0.49560535  0.50069086  0.21571693     0.05100
C619        C  0.52272850  0.50450883  0.23345673    -0.07200
C620        C  0.52101463  0.50485507  0.26559289    -0.08000
C621        C  0.49283375  0.50111683  0.28066480    -0.02500
C622        C  0.96583670  0.99635464  0.26331175     0.04300
N623        N  0.93671507  0.99225728  0.27808333     0.66800
H624        H  0.94630192  0.99274961  0.21814647     0.15700
H625        H  0.54196842  0.50792451  0.27894059     0.15400
N626        N  0.55219077  0.50833932  0.21935385     0.74500
O627        O  0.92030315  0.01546031  0.28393780    -0.38900
O628        O  0.92522695  0.96562433  0.28036664    -0.38900
O629        O  0.56352190  0.53499673  0.21657917    -0.39600
O630        O  0.56912652  0.48511588  0.21530044    -0.39600
C631        C  0.46964685  0.49434874  0.01433176    -0.11900
C632        C  0.49652217  0.50330898  0.02999079     0.05100
C633        C  0.02298470  0.01088095  0.01262366    -0.07200
C634        C  0.02236140  0.00853811  0.98057242    -0.08000
C635        C  0.49574487  0.49885158  0.96493875    -0.02500
C636        C  0.46902156  0.49200322  0.98220690     0.04300
N637        N  0.44142714  0.48147545  0.96770634     0.66800
H638        H  0.44901808  0.48832633  0.02715974     0.15700
H639        H  0.04303353  0.01456882  0.96781608     0.15400
N640        N  0.05052055  0.02168610  0.02703321     0.74500
O641        O  0.43769912  0.45304551  0.96304815    -0.38900
O642        O  0.41881890  0.49952052  0.96487685    -0.38900
O643        O  0.07345700  0.00399942  0.02941075    -0.39600
O644        O  0.05381774  0.05011615  0.03199534    -0.39600
C645        C  0.46915144  0.35998052  0.12116195    -0.11900
C646        C  0.49755332  0.34454732  0.12236561     0.05100
C647        C  0.02496632  0.36231625  0.12194164    -0.07200
C648        C  0.02337283  0.39440233  0.12135725    -0.08000
C649        C  0.99496026  0.40979688  0.12056561    -0.02500
C650        C  0.46764363  0.39212123  0.12023508     0.04300
N651        N  0.43806321  0.40639421  0.11807534     0.66800
H652        H  0.44772187  0.34703121  0.12067791     0.15700
H653        H  0.04481339  0.40733939  0.12169732     0.15400
N654        N  0.05466576  0.34816868  0.12242461     0.74500
O655        O  0.42662776  0.41188939  0.09191929    -0.38900
O656        O  0.42108567  0.40760792  0.14155927    -0.38900
O657        O  0.06963037  0.34574361  0.09770651    -0.39600
O658        O  0.06826482  0.34408647  0.14778163    -0.39600
C659        C  0.02338215  0.14387416  0.13255637    -0.11900
C660        C  0.49681060  0.15953190  0.12268974     0.05100
C661        C  0.47089453  0.14244210  0.11297558    -0.07200
C662        C  0.47175603  0.11033885  0.11384023    -0.08000
C663        C  0.99806875  0.09473881  0.12394539    -0.02500
C664        C  0.02425058  0.11172578  0.13311322     0.04300
N665        N  0.05159726  0.09683533  0.14385641     0.66800
H666        H  0.04363333  0.15651965  0.14005662     0.15700
H667        H  0.45166148  0.09764117  0.10601193     0.15400
N668        N  0.44384530  0.15717525  0.10128516     0.74500
O669        O  0.07368758  0.09265702  0.12553205    -0.38900
O670        O  0.05603604  0.09379925  0.17239065    -0.38900
O671        O  0.44080844  0.16106581  0.07266254    -0.39600
O672        O  0.42086957  0.16071445  0.11863827    -0.39600
O673        O  0.02126225  0.50342049  0.07895838    -0.71400
O674        O  0.02099777  0.00056265  0.16661751    -0.71600
O675        O  0.02031355  0.95845529  0.12168925    -0.71500
O676        O  0.02212140  0.54542954  0.12387837    -0.71500
O677        O  0.47227480  0.54617862  0.12299096    -0.71500
O678        O  0.47056163  0.95901217  0.12233941    -0.71500
O679        O  0.47112363  0.50196330  0.16633259    -0.71400
O680        O  0.47169636  0.00322499  0.07908281    -0.71600
V681        V  0.02028436  0.00194805  0.12292140     1.35200
V682        V  0.47244292  0.00261962  0.12275912     1.35200
C683        C  0.49675554  0.00350618  0.06427322     0.77800
C684        C  0.49612399  0.00102809  0.18162077     0.77900
C685        C  0.99510563  0.94386466  0.12148091     0.77700
C686        C  0.99746887  0.56077962  0.12362026     0.77700
O687        O  0.47029582  0.75003620  0.16583541    -0.71400
O688        O  0.47447141  0.75366327  0.07872037    -0.71600
O689        O  0.47207505  0.70857900  0.12073737    -0.71500
O690        O  0.47265060  0.79560194  0.12354601    -0.71500
O691        O  0.02271316  0.79562449  0.12331564    -0.71500
O692        O  0.02200359  0.70840485  0.12533839    -0.71500
O693        O  0.02417667  0.75131065  0.08080342    -0.71400
O694        O  0.02070879  0.75281349  0.16797166    -0.71600
V695        V  0.47332462  0.75203494  0.12226987     1.35200
V696        V  0.02145662  0.75203221  0.12435862     1.35200
C697        C  0.99519922  0.75133963  0.18189057     0.77800
C698        C  0.99982018  0.75240109  0.06488901     0.77900
C699        C  0.49682045  0.69350178  0.12284437     0.77700
C700        C  0.49771422  0.81046552  0.12334478     0.77700
O701        O  0.22192388  0.95430604  0.12460514    -0.71400
O702        O  0.22254475  0.54135667  0.12626501    -0.71600
O703        O  0.22482014  0.99881561  0.08178153    -0.71500
O704        O  0.22007725  0.49657749  0.16914589    -0.71500
O705        O  0.27000437  0.99868172  0.17168193    -0.71500
O706        O  0.27454126  0.49671530  0.08460090    -0.71500
O707        O  0.27250549  0.54119146  0.12704877    -0.71400
O708        O  0.27167372  0.95386350  0.12930913    -0.71600
V709        V  0.22328226  0.99778820  0.12550112     1.35200
V710        V  0.27122710  0.49756271  0.12806443     1.35200
C711        C  0.24660124  0.93915750  0.12692773     0.77800
C712        C  0.24759154  0.55620639  0.12674905     0.77900
C713        C  0.25048743  0.49783300  0.06822303     0.77700
C714        C  0.24437830  0.49783515  0.18516700     0.77700
O715        O  0.21888126  0.74576744  0.16948808    -0.71400
O716        O  0.22322003  0.75003321  0.08237860    -0.71600
O717        O  0.22059161  0.70444716  0.12417962    -0.71500
O718        O  0.22157737  0.79152098  0.12768780    -0.71500
O719        O  0.27154800  0.79102688  0.12902276    -0.71500
O720        O  0.27041972  0.70397195  0.12772896    -0.71500
O721        O  0.27306042  0.74840304  0.08472075    -0.71400
O722        O  0.26887681  0.74678723  0.17181520    -0.71600
V723        V  0.22201665  0.74795498  0.12596129     1.35200
V724        V  0.27000582  0.74750851  0.12826564     1.35200
C725        C  0.24321564  0.74585435  0.18546748     0.77800
C726        C  0.24883374  0.74979219  0.06858192     0.77900
C727        C  0.24535675  0.68929587  0.12563537     0.77700
C728        C  0.24674768  0.80615769  0.12886591     0.77700
O729        O  0.02628029  0.49609537  0.82967431    -0.71400
O730        O  0.02209632  0.99722831  0.91693669    -0.71600
O731        O  0.02352739  0.95302515  0.87418064    -0.71500
O732        O  0.02481226  0.54011604  0.87247324    -0.71500
O733        O  0.47490700  0.54050331  0.87089409    -0.71500
O734        O  0.47380821  0.95298634  0.87121095    -0.71500
O735        O  0.47223277  0.49662285  0.91485793    -0.71400
O736        O  0.47628960  0.99719668  0.82772688    -0.71600
V737        V  0.02321222  0.99657344  0.87339920     1.35200
V738        V  0.47530476  0.99675103  0.87130566     1.35200
C739        C  0.50197569  0.99693643  0.81415360     0.77800
C740        C  0.49677074  0.99715951  0.93097175     0.77900
C741        C  0.99847489  0.93828324  0.87246459     0.77700
C742        C  0.00009776  0.55538405  0.87118061     0.77700
O743        O  0.47712217  0.74725275  0.91583222    -0.71400
O744        O  0.47994414  0.74401766  0.82862880    -0.71600
O745        O  0.47866180  0.70232357  0.87389098    -0.71500
O746        O  0.47825648  0.78939846  0.87056293    -0.71500
O747        O  0.02774520  0.79030852  0.87350358    -0.71500
O748        O  0.02829678  0.70286316  0.87480442    -0.71500
O749        O  0.02960305  0.74625550  0.83033986    -0.71400
O750        O  0.02656343  0.74696836  0.91754011    -0.71600
V751        V  0.47947734  0.74580480  0.87226603     1.35200
V752        V  0.02710119  0.74659407  0.87396783     1.35200
C753        C  0.00111024  0.74753088  0.93161798     0.77800
C754        C  0.00514906  0.74455902  0.81460339     0.77900
C755        C  0.50367043  0.68753584  0.87461551     0.77700
C756        C  0.50304371  0.80461311  0.87214920     0.77700
O757        O  0.23560307  0.96122680  0.87659788    -0.71400
O758        O  0.23476895  0.54863409  0.87697519    -0.71600
O759        O  0.23427023  0.00519768  0.83336574    -0.71500
O760        O  0.23536804  0.50430201  0.92000709    -0.71500
O761        O  0.28545318  0.00286890  0.92014811    -0.71500
O762        O  0.28411510  0.50779672  0.83229896    -0.71500
O763        O  0.28468041  0.54878716  0.87830615    -0.71400
O764        O  0.28554530  0.96180368  0.87391093    -0.71600
V765        V  0.23606447  0.00486397  0.87674803     1.35200
V766        V  0.28395864  0.50531520  0.87616205     1.35200
C767        C  0.26073305  0.94664860  0.87487693     0.77800
C768        C  0.25973216  0.56367871  0.87805034     0.77900
C769        C  0.25874076  0.50670709  0.81788405     0.77700
C770        C  0.26021951  0.50287530  0.93503992     0.77700
O771        O  0.23258997  0.75418485  0.91980574    -0.71400
O772        O  0.23441059  0.75746018  0.83275035    -0.71600
O773        O  0.23307461  0.71220974  0.87516857    -0.71500
O774        O  0.23404690  0.79937699  0.87782579    -0.71500
O775        O  0.28400968  0.79882293  0.87545014    -0.71500
O776        O  0.28281913  0.71172209  0.87965104    -0.71500
O777        O  0.28425611  0.75318914  0.83388918    -0.71400
O778        O  0.28243217  0.75688814  0.92109784    -0.71600
V779        V  0.23446905  0.75581592  0.87636319     1.35200
V780        V  0.28246172  0.75523447  0.87746466     1.35200
C781        C  0.25714575  0.75526792  0.93541735     0.77800
C782        C  0.25960334  0.75501921  0.81846706     0.77900
C783        C  0.25774808  0.69701978  0.87791503     0.77700
C784        C  0.25921640  0.81396522  0.87683924     0.77700
O785        O  0.99461941  0.52813548  0.41554266    -0.71400
O786        O  0.49333168  0.52680718  0.32860147    -0.71600
O787        O  0.45027563  0.52864782  0.37308116    -0.71500
O788        O  0.03759240  0.52609059  0.37150334    -0.71500
O789        O  0.03618341  0.97616716  0.37301206    -0.71500
O790        O  0.44905150  0.97863271  0.37400232    -0.71500
O791        O  0.99185352  0.97657622  0.32971386    -0.71400
O792        O  0.49308383  0.97852542  0.41735276    -0.71600
V793        V  0.49402770  0.52656819  0.37224960     1.35200
V794        V  0.49253643  0.97845874  0.37357676     1.35200
C795        C  0.49394488  0.00385942  0.43160625     0.77800
C796        C  0.49233141  0.00150183  0.31452857     0.77900
C797        C  0.43491214  0.50387091  0.37376300     0.77700
C798        C  0.05191357  0.50069984  0.37221530     0.77700
O799        O  0.49652913  0.71999310  0.41585347    -0.71400
O800        O  0.99367190  0.72379416  0.32873720    -0.71600
O801        O  0.03808057  0.72163990  0.37201043    -0.71500
O802        O  0.45070234  0.72233763  0.37419118    -0.71500
O803        O  0.45158569  0.77228619  0.37350247    -0.71500
O804        O  0.03882940  0.77164806  0.37415700    -0.71500
O805        O  0.49546726  0.77289028  0.32993551    -0.71400
O806        O  0.99526340  0.77056924  0.41742168    -0.71600
V807        V  0.99456364  0.72318290  0.37243480     1.35200
V808        V  0.99523566  0.77122024  0.37375986     1.35200
C809        C  0.99636851  0.74511361  0.43170407     0.77800
C810        C  0.99477259  0.74932791  0.31459856     0.77900
C811        C  0.05325713  0.74640952  0.37362292     0.77700
C812        C  0.43617470  0.74754865  0.37392541     0.77700
O813        O  0.19989835  0.97532434  0.37953201    -0.71400
O814        O  0.28734777  0.97533994  0.37427949    -0.71600
O815        O  0.24620916  0.97638045  0.42069553    -0.71500
O816        O  0.24084384  0.97391173  0.33354146    -0.71500
O817        O  0.24350561  0.52376179  0.33186616    -0.71500
O818        O  0.24399322  0.52617830  0.41906909    -0.71500
O819        O  0.28723588  0.52525961  0.37527568    -0.71400
O820        O  0.20018855  0.52512151  0.37570345    -0.71600
V821        V  0.24359584  0.97615866  0.37704551     1.35200
V822        V  0.24372385  0.52409480  0.37550000     1.35200
C823        C  0.18516109  0.50029322  0.37784882     0.77800
C824        C  0.30222530  0.50040081  0.37416086     0.77900
C825        C  0.24542557  0.00170405  0.43490357     0.77700
C826        C  0.24159813  0.99848543  0.31783130     0.77700
O827        O  0.20031226  0.72052600  0.37898124    -0.71400
O828        O  0.28752120  0.71983341  0.37396838    -0.71600
O829        O  0.24660742  0.71985937  0.42031428    -0.71500
O830        O  0.24104803  0.72061157  0.33287097    -0.71500
O831        O  0.24461479  0.77053710  0.33306620    -0.71500
O832        O  0.24462687  0.76975747  0.42036005    -0.71500
O833        O  0.28802820  0.76969266  0.37665864    -0.71400
O834        O  0.20088533  0.77050288  0.37620744    -0.71600
V835        V  0.24389290  0.72112679  0.37658123     1.35200
V836        V  0.24447055  0.76915204  0.37664776     1.35200
C837        C  0.18572904  0.74564809  0.37718948     0.77800
C838        C  0.30274019  0.74467388  0.37473275     0.77900
C839        C  0.24649721  0.74475643  0.43535870     0.77700
C840        C  0.24245110  0.74578651  0.31809230     0.77700
O841        O  0.50215978  0.98373313  0.66661300    -0.71400
O842        O  0.99688561  0.98506805  0.57998888    -0.71600
O843        O  0.04315807  0.98478033  0.62098757    -0.71500
O844        O  0.45593539  0.98436759  0.62604354    -0.71500
O845        O  0.45597136  0.53441137  0.62482820    -0.71500
O846        O  0.04320994  0.53477582  0.62246975    -0.71500
O847        O  0.49833485  0.53531330  0.57991097    -0.71400
O848        O  0.00087186  0.53364093  0.66727340    -0.71600
V849        V  0.99951538  0.98548472  0.62334400     1.35200
V850        V  0.99967132  0.53354372  0.62344472     1.35200
C851        C  0.00224106  0.50824974  0.68173639     0.79400
C852        C  0.99716141  0.51006387  0.56467583     0.77900
C853        C  0.05805934  0.00985036  0.62169951     0.77700
C854        C  0.44099974  0.00934838  0.62626133     0.77700
O855        O  0.00925094  0.71387355  0.58004219    -0.71400
O856        O  0.50830153  0.71572811  0.66762944    -0.71600
O857        O  0.46523206  0.71554645  0.62319963    -0.71500
O858        O  0.05283975  0.71401190  0.62434068    -0.71500
O859        O  0.05316962  0.76399356  0.62194876    -0.71500
O860        O  0.46609552  0.76553197  0.62418998    -0.71500
O861        O  0.01125768  0.76502684  0.66660179    -0.71400
O862        O  0.50821575  0.76419557  0.57937275    -0.71600
V863        V  0.50891857  0.71589628  0.62383800     1.35200
V864        V  0.50969407  0.76394218  0.62292376     1.35200
C865        C  0.50806093  0.73910079  0.56472870     0.77800
C866        C  0.50999366  0.74099412  0.68192689     0.77900
C867        C  0.45073952  0.74077633  0.62359707     0.77700
C868        C  0.06791226  0.73895193  0.62342373     0.77700
O869        O  0.20644061  0.98401099  0.62754785    -0.71400
O870        O  0.29367048  0.98544452  0.62761942    -0.71600
O871        O  0.25019619  0.98528022  0.67108695    -0.71500
O872        O  0.24997606  0.98412232  0.58397598    -0.71500
O873        O  0.24658798  0.53399402  0.58276656    -0.71500
O874        O  0.25322330  0.53540316  0.67004701    -0.71500
O875        O  0.29317399  0.53538657  0.62336327    -0.71400
O876        O  0.20611858  0.53404553  0.62934243    -0.71600
V877        V  0.25006538  0.98567243  0.62752771     1.35200
V878        V  0.24970609  0.53378894  0.62642848     1.35200
C879        C  0.19140106  0.50887229  0.62858149     0.77800
C880        C  0.30839372  0.51067042  0.62518422     0.77900
C881        C  0.25262859  0.01039977  0.68538774     0.77700
C882        C  0.24773843  0.00874373  0.56840710     0.77700
O883        O  0.25660717  0.71773047  0.58495235    -0.71400
O884        O  0.26245048  0.72069307  0.67243116    -0.71600
O885        O  0.21605242  0.71840765  0.63131054    -0.71500
O886        O  0.30294837  0.71960057  0.62609960    -0.71500
O887        O  0.30260440  0.76960926  0.62649807    -0.71500
O888        O  0.21505044  0.76831105  0.62750410    -0.71500
O889        O  0.25921666  0.77061948  0.67027156    -0.71400
O890        O  0.25806821  0.76763554  0.58325455    -0.71600
V891        V  0.25951560  0.72006100  0.62867928     1.35200
V892        V  0.25880351  0.76808441  0.62687133     1.35200
C893        C  0.25635864  0.74231229  0.56909543     0.77800
C894        C  0.26130954  0.74628409  0.68618621     0.77900
C895        C  0.20066127  0.74304800  0.62982213     0.77700
C896        C  0.31769714  0.74469404  0.62614487     0.77700
C897        C  0.40171579  0.76758328  0.63549781    -0.11900
C898        C  0.41670785  0.74157114  0.62370024     0.05100
C899        C  0.39883316  0.71680764  0.61262957    -0.07200
C900        C  0.36672202  0.71841982  0.61371690    -0.08000
C901        C  0.35172126  0.74437740  0.62557375    -0.02500
C902        C  0.36955703  0.76909481  0.63676868     0.04300
N903        N  0.35550891  0.79507969  0.65105059     0.66800
H904        H  0.41506867  0.78665731  0.64460294     0.15700
H905        H  0.35340085  0.69926751  0.60472216     0.15400
N906        N  0.41280357  0.69040178  0.59904983     0.74500
O907        O  0.34885201  0.79381606  0.67926752    -0.38900
O908        O  0.35512570  0.82072980  0.63723288    -0.38900
O909        O  0.41381661  0.66535085  0.61390622    -0.39600
O910        O  0.41831916  0.69045489  0.57057559    -0.39600
C911        C  0.11656165  0.76531224  0.63739782    -0.11900
C912        C  0.10188109  0.73930818  0.62507037     0.05100
C913        C  0.11994142  0.71420887  0.61532796    -0.07200
C914        C  0.15202594  0.71574254  0.61767665    -0.08000
C915        C  0.16669605  0.74192851  0.62960020    -0.02500
C916        C  0.14862228  0.76673132  0.63997508     0.04300
N917        N  0.16231421  0.79280186  0.65455770     0.66800
H918        H  0.10299308  0.78453439  0.64576976     0.15700
H919        H  0.16561260  0.69651215  0.60935180     0.15400
N920        N  0.10622892  0.68761550  0.60174307     0.74500
O921        O  0.16462481  0.81793867  0.64000070    -0.38900
O922        O  0.16630425  0.79243030  0.68330573    -0.38900
O923        O  0.10351464  0.68626110  0.57289317    -0.39600
O924        O  0.10251103  0.66352929  0.61772248    -0.39600
C925        C  0.39164933  0.53456539  0.61334206    -0.11900
C926        C  0.40707719  0.00961978  0.62705931     0.05100
C927        C  0.38993795  0.98544404  0.64051387    -0.07200
C928        C  0.35779802  0.98614573  0.63932646    -0.08000
C929        C  0.34234672  0.51092501  0.62530962    -0.02500
C930        C  0.35950972  0.53547355  0.61248972     0.04300
N931        N  0.34478742  0.56096159  0.59760468     0.66800
H932        H  0.40450923  0.55334278  0.60278147     0.15700
H933        H  0.34495655  0.96744620  0.65004142     0.15400
N934        N  0.40469236  0.96091589  0.65689756     0.74500
O935        O  0.34107895  0.58578617  0.61207329    -0.38900
O936        O  0.34122903  0.56072809  0.56880755    -0.38900
O937        O  0.40947372  0.96358215  0.68538557    -0.39600
O938        O  0.40687331  0.93474683  0.64463444    -0.39600
C939        C  0.10761143  0.98228748  0.62933202    -0.11900
C940        C  0.09215035  0.00989955  0.62255862     0.05100
C941        C  0.10975848  0.53726565  0.61841452    -0.07200
C942        C  0.14181241  0.53634661  0.62113754    -0.08000
C943        C  0.15729413  0.50871745  0.62778949    -0.02500
C944        C  0.13967650  0.98140598  0.63220315     0.04300
N945        N  0.15392786  0.95288630  0.64055434     0.66800
H946        H  0.09467883  0.96116388  0.63318560     0.15700
H947        H  0.15470763  0.55752185  0.61745148     0.15400
N948        N  0.09546208  0.56600281  0.61093008     0.74500
O949        O  0.15832184  0.94663380  0.66859509    -0.38900
O950        O  0.15622680  0.93179572  0.62086089    -0.38900
O951        O  0.09202142  0.58601033  0.63156060    -0.39600
O952        O  0.09176317  0.57351682  0.58309373    -0.39600
C953        C  0.25711427  0.77005615  0.51870664    -0.11900
C954        C  0.25393833  0.74207794  0.53486627     0.05100
C955        C  0.24800772  0.71500594  0.51789254    -0.07200
C956        C  0.24564980  0.71644571  0.48570863    -0.08000
C957        C  0.24879527  0.74447791  0.46959608    -0.02500
C958        C  0.25457878  0.77154433  0.48663030     0.04300
N959        N  0.25848780  0.80077932  0.47182992     0.66800
H960        H  0.26169933  0.79125483  0.53105004     0.15700
H961        H  0.24105523  0.69531224  0.47325968     0.15400
N962        N  0.24368449  0.68592684  0.53286489     0.74500
O963        O  0.23578477  0.81875671  0.46936636    -0.38900
O964        O  0.28530215  0.81093255  0.46696376    -0.38900
O965        O  0.21673936  0.67651547  0.53844320    -0.39600
O966        O  0.26598514  0.66742286  0.53504729    -0.39600
C967        C  0.24328507  0.53165975  0.48351227    -0.11900
C968        C  0.24604509  0.00296174  0.46908681     0.05100
C969        C  0.24906758  0.97628277  0.48768337    -0.07200
C970        C  0.24953353  0.97887853  0.51973434    -0.08000
C971        C  0.24691479  0.00760883  0.53422791    -0.02500
C972        C  0.24363032  0.53426287  0.51559168     0.04300
N973        N  0.24026076  0.56415222  0.52873971     0.66800
H974        H  0.24064276  0.55252189  0.46982725     0.15700
H975        H  0.25196698  0.95796461  0.53337943     0.15400
N976        N  0.25169590  0.94629448  0.47458259     0.74500
O977        O  0.26366720  0.58107090  0.53210680    -0.38900
O978        O  0.21374238  0.57573156  0.53123455    -0.38900
O979        O  0.27783685  0.93377478  0.47271980    -0.39600
O980        O  0.22835656  0.42999269  0.47088617    -0.39600
C981        C  0.49899948  0.71470299  0.48085068    -0.11900
C982        C  0.99928709  0.74374891  0.46577976     0.05100
C983        C  0.00312438  0.77054957  0.48368614    -0.07200
C984        C  0.00613370  0.76810946  0.51559606    -0.08000
C985        C  0.00577116  0.73938748  0.53068454    -0.02500
C986        C  0.50194226  0.71249831  0.51291837     0.04300
N987        N  0.50029221  0.68272487  0.52705037     0.66800
H988        H  0.49557894  0.69368166  0.46785529     0.15700
H989        H  0.00890477  0.78918474  0.52865404     0.15400
N990        N  0.00461555  0.80051302  0.46995143     0.74500
O991        O  0.47434172  0.67128874  0.53349207    -0.38900
O992        O  0.52382315  0.66568946  0.52737835    -0.38900
O993        O  0.98129991  0.81781792  0.47068213    -0.39600
O994        O  0.03045506  0.81168357  0.46262681    -0.39600
C995        C  0.38652499  0.71922401  0.37142363    -0.11900
C996        C  0.40204162  0.74754122  0.37381120     0.05100
C997        C  0.38452400  0.77487269  0.37561813    -0.07200
C998        C  0.35236993  0.77327098  0.37572300    -0.08000
C999        C  0.33686079  0.74490976  0.37368126    -0.02500
C1000       C  0.35439229  0.71765592  0.37105041     0.04300
N1001       N  0.34012624  0.68820607  0.36744081     0.66800
H1002       H  0.39940852  0.69788408  0.36947012     0.15700
H1003       H  0.33947246  0.79462020  0.37748711     0.15400
N1004       N  0.39883734  0.80447511  0.37736612     0.74500
O1005       O  0.33448097  0.67841725  0.34075972    -0.38900
O1006       O  0.33906803  0.66977172  0.38997155    -0.38900
O1007       O  0.40170268  0.82058413  0.35327633    -0.39600
O1008       O  0.40290419  0.81677853  0.40326339    -0.39600
C1009       C  0.13524441  0.72224337  0.39064223    -0.11900
C1010       C  0.15182503  0.74589443  0.37594841     0.05100
C1011       C  0.13569231  0.76938215  0.36015271    -0.07200
C1012       C  0.10354501  0.76936968  0.36004660    -0.08000
C1013       C  0.08703152  0.74595030  0.37496763    -0.02500
C1014       C  0.10302642  0.72224270  0.39049941     0.04300
N1015       N  0.08686814  0.69892506  0.40742385     0.66800
H1016       H  0.14731776  0.70416871  0.40301008     0.15700
H1017       H  0.09143548  0.78732873  0.34752808     0.15400
N1018       N  0.15156029  0.79231690  0.34253395     0.74500
O1019       O  0.08693003  0.67142561  0.39818997    -0.38900
O1020       O  0.07202098  0.70590252  0.43131733    -0.38900
O1021       O  0.15790023  0.78714350  0.31473398    -0.39600
O1022       O  0.15397471  0.81933451  0.35279867    -0.39600
C1023       C  0.99158910  0.98073387  0.51627356    -0.11900
C1024       C  0.99579566  0.50933326  0.53051634     0.05100
C1025       C  0.49813032  0.53648242  0.51225068    -0.07200
C1026       C  0.49761418  0.53397426  0.48013533    -0.08000
C1027       C  0.49424651  0.00517431  0.46577416    -0.02500
C1028       C  0.99090258  0.97823174  0.48424623     0.04300
N1029       N  0.98651828  0.94844529  0.47113032     0.66800
H1030       H  0.98902370  0.95981917  0.52988501     0.15700
H1031       H  0.49966469  0.55489758  0.46645163     0.15400
N1032       N  0.50122010  0.56636679  0.52550954     0.74500
O1033       O  0.00939608  0.93095980  0.46743689    -0.38900
O1034       O  0.46117613  0.93710553  0.46898275    -0.38900
O1035       O  0.02918720  0.57737346  0.52720631    -0.39600
O1036       O  0.47753000  0.58259608  0.52976836    -0.39600
C1037       C  0.35160380  0.52492214  0.38886271    -0.11900
C1038       C  0.33615259  0.50120917  0.37332130     0.05100
C1039       C  0.35327833  0.97915333  0.35722809    -0.07200
C1040       C  0.38542329  0.98055436  0.35773205    -0.08000
C1041       C  0.40101673  0.50388687  0.37368793    -0.02500
C1042       C  0.38377891  0.52640381  0.38925351     0.04300
N1043       N  0.39853943  0.54979099  0.40697693     0.66800
H1044       H  0.33859308  0.54209538  0.40145521     0.15700
H1045       H  0.39844525  0.96338884  0.34513096     0.15400
N1046       N  0.33858253  0.95612273  0.33901315     0.74500
O1047       O  0.40042980  0.57684970  0.39635641    -0.38900
O1048       O  0.40403583  0.54493226  0.43509261    -0.38900
O1049       O  0.33359744  0.96142744  0.31087966    -0.39600
O1050       O  0.33677371  0.92885516  0.34908862    -0.39600
C1051       C  0.10187823  0.52694456  0.38147902    -0.11900
C1052       C  0.08602003  0.49999218  0.37335322     0.05100
C1053       C  0.10296990  0.97297571  0.36779735    -0.07200
C1054       C  0.13512806  0.97349451  0.36989154    -0.08000
C1055       C  0.15108000  0.50047798  0.37753785    -0.02500
C1056       C  0.13398566  0.52740294  0.38377579     0.04300
N1057       N  0.14869332  0.55519018  0.39344123     0.66800
H1058       H  0.08927542  0.54782956  0.38663648     0.15700
H1059       H  0.14779725  0.95264081  0.36475471     0.15400
N1060       N  0.08823772  0.94496298  0.35886248     0.74500
O1061       O  0.15312644  0.07664140  0.37425330    -0.38900
O1062       O  0.15148120  0.56059988  0.42178150    -0.38900
O1063       O  0.08670974  0.93815566  0.33073928    -0.39600
O1064       O  0.08293743  0.42444275  0.37838719    -0.39600
C1065       C  0.28030228  0.73259643  0.77042291    -0.11900
C1066       C  0.26021018  0.75341404  0.78462603     0.05100
C1067       C  0.24067763  0.77181407  0.76624491    -0.07200
C1068       C  0.24172039  0.76928853  0.73422610    -0.08000
C1069       C  0.26145186  0.74814737  0.72002145    -0.02500
C1070       C  0.28087250  0.72961369  0.73837905     0.04300
N1071       N  0.30213872  0.70863345  0.72480061     0.66800
H1072       H  0.29547207  0.71828318  0.78434048     0.15700
H1073       H  0.22668439  0.78377218  0.72033137     0.15400
N1074       N  0.22043091  0.79387654  0.77968490     0.74500
O1075       O  0.32841783  0.71811936  0.71672890    -0.38900
O1076       O  0.29694342  0.68004693  0.72618421    -0.38900
O1077       O  0.22914508  0.82147638  0.78238083    -0.39600
O1078       O  0.19235424  0.78725365  0.78329722    -0.39600
C1079       C  0.28009716  0.52326388  0.76717653    -0.11900
C1080       C  0.25745839  0.00719060  0.78393848     0.05100
C1081       C  0.23322700  0.99253992  0.76785954    -0.07200
C1082       C  0.23218960  0.99394514  0.73577107    -0.08000
C1083       C  0.25447488  0.01029283  0.71915477    -0.02500
C1084       C  0.27865394  0.52521095  0.73500408     0.04300
N1085       N  0.30244348  0.54116343  0.71872652     0.66800
H1086       H  0.29883982  0.53466596  0.77917050     0.15700
H1087       H  0.21365789  0.98225574  0.72369714     0.15400
N1088       N  0.20993852  0.97538939  0.78367823     0.74500
O1089       O  0.30130491  0.57011105  0.71613718    -0.38900
O1090       O  0.32700405  0.52720922  0.71207252    -0.38900
O1091       O  0.18350009  0.98693496  0.78701026    -0.39600
O1092       O  0.21390645  0.94703238  0.78887276    -0.39600
C1093       C  0.28365725  0.86343613  0.86180642    -0.11900
C1094       C  0.25970620  0.84786391  0.87695693     0.05100
C1095       C  0.23645465  0.86499229  0.89162536    -0.07200
C1096       C  0.23709519  0.89710959  0.89022669    -0.08000
C1097       C  0.26088891  0.91272959  0.87490732    -0.02500
C1098       C  0.28447427  0.89561884  0.86066162     0.04300
N1099       N  0.30864849  0.91045180  0.84388237     0.66800
H1100       H  0.30162903  0.85052728  0.85025002     0.15700
H1101       H  0.21917692  0.90995635  0.90193448     0.15400
N1102       N  0.21303070  0.85020356  0.90946750     0.74500
O1103       O  0.33454383  0.91433769  0.85649585    -0.38900
O1104       O  0.30617068  0.91370417  0.81513231    -0.38900
O1105       O  0.21739585  0.84560424  0.93782121    -0.39600
O1106       O  0.18633759  0.84708250  0.89840432    -0.39600
C1107       C  0.23142351  0.61343071  0.88114124    -0.11900
C1108       C  0.25965849  0.59780609  0.87883090     0.05100
C1109       C  0.28717527  0.61522092  0.87714490    -0.07200
C1110       C  0.28588490  0.64734879  0.87696425    -0.08000
C1111       C  0.25767746  0.66294802  0.87892191    -0.02500
C1112       C  0.23023501  0.64563398  0.88159500     0.04300
N1113       N  0.20105475  0.66028300  0.88559290     0.66800
H1114       H  0.21005846  0.60062908  0.88301010     0.15700
H1115       H  0.30728060  0.66012139  0.87515651     0.15400
N1116       N  0.31671444  0.60082861  0.87545928     0.74500
O1117       O  0.18268487  0.66275594  0.86321018    -0.38900
O1118       O  0.19370850  0.67097905  0.91148014    -0.38900
O1119       O  0.32999328  0.59848572  0.84979401    -0.39600
O1120       O  0.33172395  0.59578297  0.89984283    -0.39600
C1121       C  0.02764977  0.76150372  0.76478671    -0.11900
C1122       C  0.00648704  0.74293332  0.78072567     0.05100
C1123       C  0.48713569  0.72326571  0.76390492    -0.07200
C1124       C  0.48910824  0.72245665  0.73178630    -0.08000
C1125       C  0.00982779  0.74101302  0.71591448    -0.02500
C1126       C  0.02912435  0.76108523  0.73261583     0.04300
N1127       N  0.05080880  0.78063288  0.71728951     0.66800
H1128       H  0.04278818  0.77689546  0.77738379     0.15700
H1129       H  0.47404158  0.70703103  0.71914477     0.15400
N1130       N  0.46586921  0.70322373  0.77915606     0.74500
O1131       O  0.04403462  0.80845956  0.71214568    -0.38900
O1132       O  0.07836483  0.77191312  0.71442750    -0.38900
O1133       O  0.43763555  0.71006097  0.77966945    -0.39600
O1134       O  0.47422642  0.67638525  0.78670219    -0.39600
C1135       C  0.49921403  0.52865374  0.76701788    -0.11900
C1136       C  0.50336082  0.49964322  0.78055211     0.05100
C1137       C  0.00854230  0.97411369  0.76201455    -0.07200
C1138       C  0.00834354  0.97746295  0.73004677    -0.08000
C1139       C  0.00356071  0.50648494  0.71576434    -0.02500
C1140       C  0.49922896  0.53230986  0.73504575     0.04300
N1141       N  0.49455691  0.56240364  0.72241460     0.66800
H1142       H  0.49583942  0.54872270  0.78148900     0.15700
H1143       H  0.01182373  0.95704789  0.71613310     0.15400
N1144       N  0.01309493  0.94428257  0.77534608     0.74500
O1145       O  0.46749234  0.57232943  0.71870802    -0.38900
O1146       O  0.51692674  0.58093383  0.72080848    -0.38900
O1147       O  0.99073037  0.92577642  0.77716482    -0.39600
O1148       O  0.04011051  0.93450396  0.77974175    -0.39600
C1149       C  0.02539144  0.88888596  0.88251982    -0.11900
C1150       C  0.99874656  0.90419449  0.87236745     0.05100
C1151       C  0.47371280  0.88611432  0.86224792    -0.07200
C1152       C  0.47566450  0.85394687  0.86216670    -0.08000
C1153       C  0.50234804  0.83869779  0.87236647    -0.02500
C1154       C  0.02723156  0.85676332  0.88262085     0.04300
N1155       N  0.05447750  0.84255464  0.89449530     0.66800
H1156       H  0.04502306  0.90194600  0.89088774     0.15700
H1157       H  0.45608764  0.84080990  0.85379537     0.15400
N1158       N  0.44623983  0.90036222  0.85096413     0.74500
O1159       O  0.07787925  0.84013839  0.87751335    -0.38900
O1160       O  0.55695243  0.83770136  0.92373542    -0.38900
O1161       O  0.94225844  0.90424447  0.82213520    -0.39600
O1162       O  0.42368359  0.90400885  0.86883146    -0.39600
C1163       C  0.02485436  0.60419704  0.88705883    -0.11900
C1164       C  0.00098336  0.58929171  0.87120314     0.05100
C1165       C  0.47824521  0.60668075  0.85673089    -0.07200
C1166       C  0.47936287  0.63875866  0.85853207    -0.08000
C1167       C  0.50323560  0.65364664  0.87433693    -0.02500
C1168       C  0.02591995  0.63632509  0.88885223     0.04300
N1169       N  0.04944153  0.65047104  0.90696239     0.66800
H1170       H  0.04238972  0.59076879  0.89892853     0.15700
H1171       H  0.46174270  0.65218147  0.84678122     0.15400
N1172       N  0.45476814  0.59269986  0.83844257     0.74500
O1173       O  0.04398925  0.65715990  0.93461805    -0.38900
O1174       O  0.07680333  0.65113535  0.89723871    -0.38900
O1175       O  0.42752128  0.59151140  0.84843046    -0.39600
O1176       O  0.96014135  0.58860409  0.80968327    -0.39600
C1177       C  0.22157659  0.72708846  0.26809284    -0.11900
C1178       C  0.24196924  0.74635778  0.28415182     0.05100
C1179       C  0.26196248  0.76586643  0.26746200    -0.07200
C1180       C  0.26226015  0.76490198  0.23536622    -0.08000
C1181       C  0.24202983  0.74565403  0.21930324    -0.02500
C1182       C  0.22110973  0.72698566  0.23581701     0.04300
N1183       N  0.19990534  0.70729846  0.22015016     0.66800
H1184       H  0.20586181  0.71222485  0.28064997     0.15700
H1185       H  0.27809634  0.77971598  0.22287987     0.15400
N1186       N  0.28265175  0.78629513  0.28278969     0.74500
O1187       O  0.20952373  0.68375629  0.20626661    -0.38900
O1188       O  0.17183052  0.71460251  0.21839163    -0.38900
O1189       O  0.31057626  0.77887539  0.28589876    -0.39600
O1190       O  0.27452318  0.81372704  0.28770945    -0.39600
C1191       C  0.27970242  0.75159641  0.02017549    -0.11900
C1192       C  0.25063814  0.75124650  0.03446993     0.05100
C1193       C  0.22400105  0.75251185  0.01576785    -0.07200
C1194       C  0.22684504  0.75407557  0.98380692    -0.08000
C1195       C  0.25582269  0.75432216  0.96950648    -0.02500
C1196       C  0.28251337  0.75308588  0.98810695     0.04300
N1197       N  0.31265026  0.75304606  0.97491892     0.66800
H1198       H  0.30051852  0.75065485  0.03392189     0.15700
H1199       H  0.20598334  0.75497243  0.97011725     0.15400
N1200       N  0.19375189  0.75209365  0.02866423     0.74500
O1201       O  0.32676876  0.77812780  0.97056865    -0.38900
O1202       O  0.32527561  0.72791824  0.96778579    -0.38900
O1203       O  0.17913809  0.77702611  0.03148101    -0.39600
O1204       O  0.17964661  0.72679776  0.03151719    -0.39600
C1205       C  0.22770785  0.97458544  0.23479862    -0.11900
C1206       C  0.24300427  0.49833599  0.21893742     0.05100
C1207       C  0.25745819  0.52194368  0.23566535    -0.07200
C1208       C  0.25625388  0.52174516  0.26775886    -0.08000
C1209       C  0.24133948  0.99785474  0.28384220    -0.02500
C1210       C  0.22725020  0.97385555  0.26704172     0.04300
N1211       N  0.21206633  0.94884714  0.28226836     0.66800
H1212       H  0.21673808  0.95618518  0.22208651     0.15700
H1213       H  0.26742202  0.54021815  0.28019147     0.15400
N1214       N  0.27313187  0.54654874  0.22035311     0.74500
O1215       O  0.18367220  0.95071472  0.28809770    -0.38900
O1216       O  0.22587823  0.42302357  0.28459048    -0.38900
O1217       O  0.25901642  0.07138207  0.21493498    -0.39600
O1218       O  0.30212818  0.54595874  0.21858375    -0.39600
C1219       C  0.23027318  0.49504156  0.98304500    -0.11900
C1220       C  0.25893594  0.50096382  0.96916121     0.05100
C1221       C  0.28503828  0.00547325  0.98830368    -0.07200
C1222       C  0.28176398  0.00403152  0.02037317    -0.08000
C1223       C  0.25282600  0.49833425  0.03412579    -0.02500
C1224       C  0.22695895  0.49377925  0.01497301     0.04300
N1225       N  0.19712322  0.48753002  0.02739090     0.66800
H1226       H  0.20991351  0.49134463  0.96898652     0.15700
H1227       H  0.30196449  0.00798541  0.03458681     0.15400
N1228       N  0.31459089  0.01257990  0.97569585     0.74500
O1229       O  0.17832745  0.50938342  0.03085245    -0.38900
O1230       O  0.18750231  0.46010427  0.02860807    -0.38900
O1231       O  0.32299339  0.04034967  0.97347854    -0.39600
O1232       O  0.33427447  0.99144121  0.97276263    -0.39600
C1233       C  0.22071203  0.85595308  0.11916064    -0.11900
C1234       C  0.24696768  0.84012197  0.12933952     0.05100
C1235       C  0.27300211  0.85710268  0.13890128    -0.07200
C1236       C  0.27244580  0.88925976  0.13760149    -0.08000
C1237       C  0.24622763  0.90512376  0.12724345    -0.02500
C1238       C  0.22008564  0.88807260  0.11796028     0.04300
N1239       N  0.19303404  0.90283044  0.10631761     0.66800
H1240       H  0.20054814  0.84330118  0.11142380     0.15700
H1241       H  0.29261850  0.90190056  0.14531890     0.15400
N1242       N  0.29975900  0.84218070  0.15102690     0.74500
O1243       O  0.19042464  0.90753612  0.07777561    -0.38900
O1244       O  0.16960260  0.90508742  0.12328458    -0.38900
O1245       O  0.32379286  0.84046281  0.13485145    -0.39600
O1246       O  0.30111666  0.83580160  0.17934626    -0.39600
C1247       C  0.22000065  0.60576739  0.11915566    -0.11900
C1248       C  0.24741927  0.59025293  0.12669451     0.05100
C1249       C  0.27392058  0.60767167  0.13391787    -0.07200
C1250       C  0.27261774  0.63977434  0.13323985    -0.08000
C1251       C  0.24535170  0.65528190  0.12541902    -0.02500
C1252       C  0.21878040  0.63793698  0.11827594     0.04300
N1253       N  0.19057196  0.65250523  0.10945610     0.66800
H1254       H  0.19940932  0.59289662  0.11336467     0.15700
H1255       H  0.29318785  0.65260481  0.13920106     0.15400
N1256       N  0.30219779  0.59333170  0.14279518     0.74500
O1257       O  0.18714291  0.66261823  0.08239589    -0.38900
O1258       O  0.16878296  0.65462509  0.12849358    -0.38900
O1259       O  0.32302801  0.58963562  0.12296711    -0.39600
O1260       O  0.30903283  0.59150991  0.17093900    -0.39600
C1261       C  0.47367544  0.73016831  0.26412102    -0.11900
C1262       C  0.99468976  0.75045407  0.28070799     0.05100
C1263       C  0.01502022  0.76981588  0.26427291    -0.07200
C1264       C  0.01497345  0.76951665  0.23210120    -0.08000
C1265       C  0.99427501  0.75088856  0.21580958    -0.02500
C1266       C  0.47320190  0.73057530  0.23190327     0.04300
N1267       N  0.45295126  0.71009062  0.21605756     0.66800
H1268       H  0.45829266  0.71465414  0.27642816     0.15700
H1269       H  0.03106399  0.78423917  0.21973378     0.15400
N1270       N  0.03661305  0.78904077  0.27991934     0.74500
O1271       O  0.46239755  0.68375366  0.20839568    -0.38900
O1272       O  0.42454656  0.71606863  0.21466319    -0.38900
O1273       O  0.06409181  0.78015155  0.28317706    -0.39600
O1274       O  0.02988132  0.81680774  0.28504721    -0.39600
C1275       C  0.47354154  0.74682851  0.01458515    -0.11900
C1276       C  0.00073115  0.75171728  0.03079997     0.05100
C1277       C  0.02829828  0.75574983  0.01397290    -0.07200
C1278       C  0.02781703  0.75407888  0.98185393    -0.08000
C1279       C  0.00034071  0.74841717  0.96571850    -0.02500
C1280       C  0.47313314  0.74484534  0.98252952     0.04300
N1281       N  0.44448669  0.73856442  0.96760528     0.66800
H1282       H  0.45196641  0.74392656  0.02689807     0.15700
H1283       H  0.04925112  0.75760693  0.96945053     0.15400
N1284       N  0.05690679  0.76214070  0.02894672     0.74500
O1285       O  0.43680008  0.71100696  0.96254472    -0.38900
O1286       O  0.42462900  0.75963679  0.96508266    -0.38900
O1287       O  0.07681830  0.74112102  0.03152155    -0.39600
O1288       O  0.06452442  0.78971884  0.03399408    -0.39600
C1289       C  0.96732275  0.49640852  0.23088184    -0.11900
C1290       C  0.49569326  0.00073201  0.21584214     0.05100
C1291       C  0.52272975  0.00503941  0.23359581    -0.07200
C1292       C  0.52098439  0.00536968  0.26573114    -0.08000
C1293       C  0.49286731  0.00109419  0.28078751    -0.02500
C1294       C  0.96580922  0.49646496  0.26307493     0.04300
N1295       N  0.93668539  0.49250886  0.27787917     0.66800
H1296       H  0.94620467  0.49295578  0.21793145     0.15700
H1297       H  0.54186843  0.00882988  0.27909054     0.15400
N1298       N  0.55212465  0.00941323  0.21950502     0.74500
O1299       O  0.92038803  0.51579065  0.28374071    -0.38900
O1300       O  0.92507397  0.46593078  0.28018030    -0.38900
O1301       O  0.56299127  0.03626881  0.21679773    -0.39600
O1302       O  0.56947563  0.98650135  0.21543662    -0.39600
C1303       C  0.46984499  0.99431561  0.01445426    -0.11900
C1304       C  0.49672245  0.00326117  0.03011748     0.05100
C1305       C  0.02280669  0.51087278  0.01235612    -0.07200
C1306       C  0.02219235  0.50850462  0.98030897    -0.08000
C1307       C  0.49593730  0.99884827  0.96506033    -0.02500
C1308       C  0.46921705  0.99198744  0.98232869     0.04300
N1309       N  0.44162334  0.98145937  0.96782667     0.66800
H1310       H  0.44921480  0.98829253  0.02727942     0.15700
H1311       H  0.04288163  0.51448957  0.96755983     0.15400
N1312       N  0.05035334  0.52165258  0.02676463     0.74500
O1313       O  0.43790926  0.95303236  0.96314045    -0.38900
O1314       O  0.41900599  0.99949592  0.96501724    -0.38900
O1315       O  0.07327110  0.50394253  0.02914889    -0.39600
O1316       O  0.05367964  0.55008056  0.03172004    -0.39600
C1317       C  0.46920409  0.86000872  0.12143472    -0.11900
C1318       C  0.49759277  0.84455128  0.12262519     0.05100
C1319       C  0.02504567  0.86229775  0.12215835    -0.07200
C1320       C  0.02347599  0.89438655  0.12161680    -0.08000
C1321       C  0.99507390  0.90980158  0.12085576    -0.02500
C1322       C  0.46772368  0.89214961  0.12049066     0.04300
N1323       N  0.43815309  0.90644509  0.11834278     0.66800
H1324       H  0.44776266  0.84707825  0.12096789     0.15700
H1325       H  0.04492519  0.90730891  0.12195852     0.15400
N1326       N  0.05473419  0.84812643  0.12260798     0.74500
O1327       O  0.42668945  0.91190421  0.09219168    -0.38900
O1328       O  0.42120598  0.90771405  0.14184531    -0.38900
O1329       O  0.06969070  0.84573516  0.09788145    -0.39600
O1330       O  0.06833715  0.84398928  0.14795436    -0.39600
C1331       C  0.02327794  0.64384775  0.13240655    -0.11900
C1332       C  0.49667260  0.65953175  0.12271567     0.05100
C1333       C  0.47069725  0.64246009  0.11312156    -0.07200
C1334       C  0.47154927  0.61035437  0.11395120    -0.08000
C1335       C  0.99792665  0.59473621  0.12376924    -0.02500
C1336       C  0.02413014  0.61169928  0.13292149     0.04300
N1337       N  0.05148504  0.59678315  0.14360853     0.66800
H1338       H  0.04354947  0.65647120  0.13988920     0.15700
H1339       H  0.45140968  0.59767282  0.10621194     0.15400
N1340       N  0.44358258  0.65721298  0.10161041     0.74500
O1341       O  0.07355899  0.59264150  0.12525599    -0.38900
O1342       O  0.05594466  0.59367477  0.17213241    -0.38900
O1343       O  0.44034043  0.66107084  0.07300586    -0.39600
O1344       O  0.42073652  0.66079191  0.11912479    -0.39600
O1345       O  0.52165180  0.00326382  0.07941754    -0.71400
O1346       O  0.52102227  0.50038761  0.16662978    -0.71600
O1347       O  0.52036095  0.45831143  0.12168612    -0.71500
O1348       O  0.52240013  0.04532224  0.12430777    -0.71500
O1349       O  0.97231258  0.04635815  0.12301225    -0.71500
O1350       O  0.97024539  0.45913672  0.12184171    -0.71500
O1351       O  0.97109400  0.00208358  0.16630899    -0.71400
O1352       O  0.97130762  0.50345811  0.07869049    -0.71600
V1353       V  0.52030514  0.50182032  0.12294670     1.35200
V1354       V  0.97212876  0.50276272  0.12236629     1.35200
C1355       C  0.99634463  0.50371672  0.06384721     0.77800
C1356       C  0.99588360  0.50110931  0.18120069     0.77900
C1357       C  0.49515197  0.44371207  0.12154988     0.77700
C1358       C  0.49772191  0.06064105  0.12394543     0.77700
O1359       O  0.97077647  0.25060029  0.16604949    -0.71400
O1360       O  0.97434049  0.25344818  0.07883409    -0.71600
O1361       O  0.97226822  0.20873214  0.12125768    -0.71500
O1362       O  0.97275381  0.29574509  0.12332347    -0.71500
O1363       O  0.52259530  0.29543856  0.12330526    -0.71500
O1364       O  0.52192942  0.20824702  0.12530222    -0.71500
O1365       O  0.52432609  0.25111936  0.08077467    -0.71400
O1366       O  0.52031628  0.25259302  0.16790399    -0.71600
V1367       V  0.97349077  0.25218912  0.12242762     1.35200
V1368       V  0.52135017  0.25185149  0.12431412     1.35200
C1369       C  0.49472543  0.25090000  0.18164733     0.77800
C1370       C  0.50005286  0.25227505  0.06473889     0.77900
C1371       C  0.99704152  0.19367786  0.12311527     0.77700
C1372       C  0.99778569  0.31064603  0.12295620     0.77700
O1373       O  0.72120570  0.45405711  0.12422010    -0.71400
O1374       O  0.72136229  0.04111520  0.12704255    -0.71600
O1375       O  0.72397596  0.49900238  0.08184020    -0.71500
O1376       O  0.71901392  0.99594601  0.16955018    -0.71500
O1377       O  0.76938511  0.49811116  0.17163636    -0.71500
O1378       O  0.77309979  0.99696913  0.08475604    -0.71500
O1379       O  0.77133162  0.04092729  0.12776949    -0.71400
O1380       O  0.77096861  0.45361004  0.12890604    -0.71600
V1381       V  0.72254103  0.49755364  0.12555809     1.35200
V1382       V  0.76999337  0.99729350  0.12825254     1.35200
C1383       C  0.74590302  0.43890711  0.12636792     0.77800
C1384       C  0.74642608  0.05594090  0.12762331     0.77900
C1385       C  0.74896864  0.99818127  0.06849119     0.77700
C1386       C  0.74339007  0.99694490  0.18547722     0.77700
O1387       O  0.71780580  0.24612144  0.16916642    -0.71400
O1388       O  0.72212417  0.24864972  0.08187236    -0.71600
O1389       O  0.71947164  0.20404584  0.12461343    -0.71500
O1390       O  0.72048027  0.29121053  0.12645518    -0.71500
O1391       O  0.77042647  0.29072687  0.12876022    -0.71500
O1392       O  0.76936811  0.20364105  0.12735014    -0.71500
O1393       O  0.77205099  0.24819349  0.08435456    -0.71400
O1394       O  0.76782770  0.24640832  0.17146689    -0.71600
V1395       V  0.72092188  0.24756016  0.12555445     1.35200
V1396       V  0.76893511  0.24719940  0.12790828     1.35200
C1397       C  0.74217070  0.24585573  0.18512011     0.77800
C1398       C  0.74781766  0.24869234  0.06819435     0.77900
C1399       C  0.74426493  0.18894127  0.12586009     0.77700
C1400       C  0.74563024  0.30585832  0.12806440     0.77700
O1401       O  0.52633143  0.99570571  0.82998886    -0.71400
O1402       O  0.52215477  0.49681824  0.91694960    -0.71600
O1403       O  0.52349648  0.45258101  0.87422676    -0.71500
O1404       O  0.52498937  0.03971827  0.87278669    -0.71500
O1405       O  0.97489562  0.04091781  0.87075531    -0.71500
O1406       O  0.97354818  0.45343290  0.87060521    -0.71500
O1407       O  0.97217681  0.99707625  0.91477766    -0.71400
O1408       O  0.97625040  0.49772888  0.82722755    -0.71600
V1409       V  0.52319642  0.49612545  0.87340099     1.35200
V1410       V  0.97509403  0.49719496  0.87080151     1.35200
C1411       C  0.00198943  0.49739169  0.81375297     0.77800
C1412       C  0.99636481  0.49752187  0.93053930     0.77900
C1413       C  0.49843882  0.43784876  0.87254186     0.77700
C1414       C  0.50026425  0.05496696  0.87151727     0.77700
O1415       O  0.97660877  0.24758491  0.91576945    -0.71400
O1416       O  0.97950719  0.24436953  0.82853306    -0.71600
O1417       O  0.97823349  0.20268833  0.87378758    -0.71500
O1418       O  0.97773965  0.28978856  0.87046061    -0.71500
O1419       O  0.52790202  0.28996240  0.87351827    -0.71500
O1420       O  0.52858156  0.20250031  0.87449050    -0.71500
O1421       O  0.52973772  0.24608891  0.83015967    -0.71400
O1422       O  0.52687186  0.24645920  0.91738200    -0.71600
V1423       V  0.97899781  0.24617606  0.87217882     1.35200
V1424       V  0.52732732  0.24624099  0.87380340     1.35200
C1425       C  0.50143850  0.24708504  0.93149210     0.77800
C1426       C  0.50525382  0.24437668  0.81446636     0.77900
C1427       C  0.00326736  0.18794290  0.87456236     0.77700
C1428       C  0.00252903  0.30501430  0.87197686     0.77700
O1429       O  0.73436209  0.46205700  0.87662061    -0.71400
O1430       O  0.73274697  0.04921423  0.87700237    -0.71600
O1431       O  0.73338184  0.50607567  0.83336187    -0.71500
O1432       O  0.73344956  0.00497977  0.92023539    -0.71500
O1433       O  0.78453919  0.50379852  0.92018171    -0.71500
O1434       O  0.78231365  0.00802303  0.83255941    -0.71500
O1435       O  0.78269325  0.04952797  0.87797566    -0.71400
O1436       O  0.78431822  0.46225103  0.87442309    -0.71600
V1437       V  0.73516018  0.50569810  0.87675086     1.35200
V1438       V  0.78209111  0.00601314  0.87642264     1.35200
C1439       C  0.75939082  0.44726641  0.87524445     0.77800
C1440       C  0.75768531  0.06432567  0.87758751     0.77900
C1441       C  0.75696127  0.00707777  0.81810302     0.77700
C1442       C  0.75830801  0.00387620  0.93529076     0.77700
O1443       O  0.73031596  0.25461714  0.91986215    -0.71400
O1444       O  0.73217881  0.25770881  0.83275932    -0.71600
O1445       O  0.73100786  0.21253000  0.87534903    -0.71500
O1446       O  0.73165654  0.29979496  0.87778605    -0.71500
O1447       O  0.78162094  0.29934886  0.87561096    -0.71500
O1448       O  0.78082079  0.21227353  0.87961995    -0.71500
O1449       O  0.78205288  0.25377861  0.83397071    -0.71400
O1450       O  0.78021091  0.25744340  0.92116118    -0.71600
V1451       V  0.73222479  0.25618079  0.87641208     1.35200
V1452       V  0.78024183  0.25578671  0.87753487     1.35200
C1453       C  0.75488839  0.25586796  0.93541903     0.77800
C1454       C  0.75740714  0.25535836  0.81851184     0.77900
C1455       C  0.75580229  0.19749187  0.87797544     0.77700
C1456       C  0.75680329  0.31445309  0.87692460     0.77700
O1457       O  0.49456718  0.02843557  0.41587889    -0.71400
O1458       O  0.99310293  0.02666918  0.32866724    -0.71600
O1459       O  0.94995514  0.02822895  0.37306823    -0.71500
O1460       O  0.53767761  0.02604542  0.37197577    -0.71500
O1461       O  0.53631079  0.47621997  0.37289372    -0.71500
O1462       O  0.94925055  0.47816344  0.37360031    -0.71500
O1463       O  0.49187188  0.47671937  0.32976164    -0.71400
O1464       O  0.99329498  0.47821784  0.41694086    -0.71600
V1465       V  0.99370783  0.02633060  0.37231352     1.35200
V1466       V  0.99273433  0.47824264  0.37315604     1.35200
C1467       C  0.99410916  0.50353192  0.43123228     0.77800
C1468       C  0.99229741  0.50141177  0.31413962     0.77900
C1469       C  0.93468886  0.00339131  0.37366383     0.77700
C1470       C  0.55184319  0.00056565  0.37266801     0.77700
O1471       O  0.99583731  0.22078830  0.41599981    -0.71400
O1472       O  0.49216852  0.22306022  0.32841557    -0.71600
O1473       O  0.53786808  0.22054551  0.37003605    -0.71500
O1474       O  0.95125313  0.22292767  0.37305061    -0.71500
O1475       O  0.95176868  0.27287759  0.37337816    -0.71500
O1476       O  0.53910731  0.27039239  0.37340757    -0.71500
O1477       O  0.99600484  0.27393068  0.33011905    -0.71400
O1478       O  0.49591192  0.26987562  0.41703131    -0.71600
V1479       V  0.49439067  0.22244830  0.37206519     1.35200
V1480       V  0.49552332  0.27044738  0.37339791     1.35200
C1481       C  0.49742485  0.24446176  0.43132829     0.77800
C1482       C  0.49382418  0.24855763  0.31426869     0.77900
C1483       C  0.55338459  0.24511526  0.37155911     0.77700
C1484       C  0.93654287  0.24802544  0.37308713     0.77700
O1485       O  0.69998207  0.47443734  0.37973709    -0.71400
O1486       O  0.78744592  0.47442676  0.37445773    -0.71600
O1487       O  0.74637785  0.47572673  0.42090109    -0.71500
O1488       O  0.74093297  0.47279931  0.33372271    -0.71500
O1489       O  0.74292902  0.02253188  0.33207387    -0.71500
O1490       O  0.74422689  0.02552739  0.41919759    -0.71500
O1491       O  0.78702771  0.02434754  0.37505788    -0.71400
O1492       O  0.70001924  0.02416200  0.37627631    -0.71600
V1493       V  0.74369578  0.47526605  0.37723679     1.35200
V1494       V  0.74353864  0.02314655  0.37567233     1.35200
C1495       C  0.68501368  0.99933381  0.37853924     0.77800
C1496       C  0.80204316  0.99949899  0.37416236     0.77900
C1497       C  0.74587172  0.50115235  0.43495400     0.77700
C1498       C  0.74152821  0.49731544  0.31790740     0.77700
O1499       O  0.70092762  0.21874025  0.37821236    -0.71400
O1500       O  0.78822360  0.21884439  0.37407247    -0.71600
O1501       O  0.74684320  0.21825575  0.42010159    -0.71500
O1502       O  0.74216651  0.21942779  0.33249885    -0.71500
O1503       O  0.74323042  0.26944043  0.33307352    -0.71500
O1504       O  0.74639151  0.26817936  0.42028860    -0.71500
O1505       O  0.78819321  0.26877914  0.37507733    -0.71400
O1506       O  0.70113581  0.26874620  0.37811145    -0.71600
V1507       V  0.74454992  0.21974521  0.37627743     1.35200
V1508       V  0.74468492  0.26778167  0.37666005     1.35200
C1509       C  0.68612353  0.24379508  0.37840698     0.77800
C1510       C  0.80316187  0.24387309  0.37382802     0.77900
C1511       C  0.74758889  0.24311660  0.43521974     0.77700
C1512       C  0.74221149  0.24474410  0.31787690     0.77700
O1513       O  0.00229871  0.48371885  0.66632788    -0.71400
O1514       O  0.49721617  0.48537814  0.57991538    -0.71600
O1515       O  0.54338810  0.48522006  0.62097441    -0.71500
O1516       O  0.95607314  0.48443471  0.62576530    -0.71500
O1517       O  0.95600917  0.03447740  0.62492022    -0.71500
O1518       O  0.54285650  0.03512287  0.62288913    -0.71500
O1519       O  0.99824409  0.03499929  0.57986458    -0.71400
O1520       O  0.50050700  0.03364039  0.66773615    -0.71600
V1521       V  0.49975116  0.48567794  0.62326271     1.35200
V1522       V  0.49930518  0.03369161  0.62389106     1.35200
C1523       C  0.50196676  0.00820269  0.68211615     0.79400
C1524       C  0.49684002  0.01038743  0.56504978     0.77900
C1525       C  0.55817694  0.51035238  0.62176940     0.77700
C1526       C  0.94125901  0.50949277  0.62597913     0.77700
O1527       O  0.50925311  0.21414909  0.57993008    -0.71400
O1528       O  0.00847981  0.21518504  0.66761390    -0.71600
O1529       O  0.96541414  0.21499418  0.62314876    -0.71500
O1530       O  0.55272723  0.21428704  0.62430524    -0.71500
O1531       O  0.55327426  0.26425161  0.62167097    -0.71500
O1532       O  0.96613937  0.26497998  0.62427552    -0.71500
O1533       O  0.51131160  0.26561127  0.66632134    -0.71400
O1534       O  0.00830125  0.26394017  0.57954293    -0.71600
V1535       V  0.00911012  0.21547722  0.62380229     1.35200
V1536       V  0.00974564  0.26352926  0.62305062     1.35200
C1537       C  0.00816503  0.23892184  0.56478977     0.77800
C1538       C  0.01007415  0.24043678  0.68195746     0.77900
C1539       C  0.95085105  0.24018271  0.62361911     0.77700
C1540       C  0.56791192  0.23915657  0.62325222     0.77700
O1541       O  0.70669167  0.48463809  0.62723592    -0.71400
O1542       O  0.79391395  0.48613387  0.62807780    -0.71600
O1543       O  0.75004506  0.48610804  0.67115265    -0.71500
O1544       O  0.75061759  0.48457117  0.58407576    -0.71500
O1545       O  0.74682949  0.03442751  0.58282055    -0.71500
O1546       O  0.75262763  0.03616028  0.67017187    -0.71500
O1547       O  0.79303942  0.03605066  0.62385138    -0.71400
O1548       O  0.70591636  0.03459878  0.62902499    -0.71600
V1549       V  0.75031165  0.48632208  0.62760365     1.35200
V1550       V  0.74953807  0.03439764  0.62651794     1.35200
C1551       C  0.69124374  0.00940124  0.62817238     0.77800
C1552       C  0.80828154  0.01136509  0.62593320     0.77900
C1553       C  0.75239810  0.51127765  0.68536914     0.77700
C1554       C  0.74838030  0.50910440  0.56837639     0.77700
O1555       O  0.75695489  0.21679748  0.58510989    -0.71400
O1556       O  0.76197281  0.22034074  0.67261819    -0.71600
O1557       O  0.71597474  0.21802086  0.63111253    -0.71500
O1558       O  0.80296472  0.21878751  0.62663391    -0.71500
O1559       O  0.80278354  0.26880151  0.62676824    -0.71500
O1560       O  0.71525658  0.26789406  0.62690046    -0.71500
O1561       O  0.75891816  0.27026122  0.67014117    -0.71400
O1562       O  0.75870111  0.26668105  0.58308188    -0.71600
V1563       V  0.75947985  0.21943811  0.62884623     1.35200
V1564       V  0.75898871  0.26744951  0.62671994     1.35200
C1565       C  0.75698482  0.24126154  0.56907474     0.77800
C1566       C  0.76068129  0.24600265  0.68622893     0.77900
C1567       C  0.70071863  0.24273568  0.62933885     0.77700
C1568       C  0.81779761  0.24383998  0.62660646     0.77700
C1569       C  0.90180986  0.26674354  0.63591374    -0.11900
C1570       C  0.91681509  0.24088868  0.62380673     0.05100
C1571       C  0.89895605  0.21618170  0.61257990    -0.07200
C1572       C  0.86683426  0.21765919  0.61391127    -0.08000
C1573       C  0.85182644  0.24348248  0.62605152    -0.02500
C1574       C  0.86965726  0.26816724  0.63732751     0.04300
N1575       N  0.85561067  0.29406597  0.65176413     0.66800
H1576       H  0.91515285  0.28577763  0.64511416     0.15700
H1577       H  0.85350611  0.19857185  0.60479313     0.15400
N1578       N  0.91294560  0.19003492  0.59852365     0.74500
O1579       O  0.84930112  0.29277300  0.68005923    -0.38900
O1580       O  0.85494702  0.31971532  0.63795535    -0.38900
O1581       O  0.91382625  0.16467335  0.61284948    -0.39600
O1582       O  0.91873849  0.19070755  0.57010520    -0.39600
C1583       C  0.61673391  0.26566062  0.63635955    -0.11900
C1584       C  0.60189338  0.23939156  0.62479636     0.05100
C1585       C  0.61981940  0.21397088  0.61563705    -0.07200
C1586       C  0.65191517  0.21541266  0.61786784    -0.08000
C1587       C  0.66674242  0.24183608  0.62905857    -0.02500
C1588       C  0.64880548  0.26702089  0.63876802     0.04300
N1589       N  0.66264530  0.29350808  0.65244764     0.66800
H1590       H  0.60329016  0.28518237  0.64423187     0.15700
H1591       H  0.66538294  0.19588735  0.61004499     0.15400
N1592       N  0.60596037  0.18709094  0.60277774     0.74500
O1593       O  0.66524092  0.31806911  0.63698043    -0.38900
O1594       O  0.66647839  0.29418352  0.68120408    -0.38900
O1595       O  0.60315691  0.18500688  0.57398435    -0.39600
O1596       O  0.60217840  0.16343900  0.61937847    -0.39600
C1597       C  0.89160204  0.03505429  0.61400659    -0.11900
C1598       C  0.90734077  0.50995395  0.62702026     0.05100
C1599       C  0.89016904  0.48591267  0.64067108    -0.07200
C1600       C  0.85802537  0.48676509  0.63968025    -0.08000
C1601       C  0.84224293  0.01163055  0.62618837    -0.02500
C1602       C  0.85946140  0.03614043  0.61335962     0.04300
N1603       N  0.84479372  0.06177508  0.59867493     0.66800
H1604       H  0.90449577  0.05378133  0.60339731     0.15700
H1605       H  0.84516421  0.46813000  0.65048384     0.15400
N1606       N  0.90490790  0.46138304  0.65706710     0.74500
O1607       O  0.84119314  0.08650771  0.61332593    -0.38900
O1608       O  0.84120058  0.06176274  0.56987990    -0.38900
O1609       O  0.91008344  0.46424290  0.68546743    -0.39600
O1610       O  0.90669338  0.43509282  0.64499677    -0.39600
C1611       C  0.60784824  0.48272547  0.62823432    -0.11900
C1612       C  0.59228440  0.51050830  0.62250662     0.05100
C1613       C  0.60945752  0.03788966  0.61904116    -0.07200
C1614       C  0.64154034  0.03695105  0.62151614    -0.08000
C1615       C  0.65712190  0.00917482  0.62727414    -0.02500
C1616       C  0.63992650  0.48180072  0.63085124     0.04300
N1617       N  0.65425741  0.45298995  0.63794042     0.66800
H1618       H  0.59499734  0.46144313  0.63139629     0.15700
H1619       H  0.65436766  0.05825592  0.61841433     0.15400
N1620       N  0.59506441  0.06680171  0.61249525     0.74500
O1621       O  0.65860242  0.44547906  0.66568652    -0.38900
O1622       O  0.65667908  0.43283728  0.61730626    -0.38900
O1623       O  0.59177428  0.08620414  0.63371763    -0.39600
O1624       O  0.59113547  0.07510422  0.58490924    -0.39600
C1625       C  0.75802582  0.26867897  0.51852568    -0.11900
C1626       C  0.75483827  0.24078750  0.53481199     0.05100
C1627       C  0.74911741  0.21360172  0.51792456    -0.07200
C1628       C  0.74687884  0.21487837  0.48570425    -0.08000
C1629       C  0.74999726  0.24284919  0.46947525    -0.02500
C1630       C  0.75565335  0.27000344  0.48643803     0.04300
N1631       N  0.75949256  0.29920892  0.47156068     0.66800
H1632       H  0.76246142  0.28995949  0.53078248     0.15700
H1633       H  0.74240415  0.19367899  0.47332491     0.15400
N1634       N  0.74494006  0.18456288  0.53301638     0.74500
O1635       O  0.73676649  0.31715539  0.46907624    -0.38900
O1636       O  0.78627924  0.30932198  0.46646515    -0.38900
O1637       O  0.71804290  0.17495023  0.53848410    -0.39600
O1638       O  0.76739188  0.16627536  0.53547296    -0.39600
C1639       C  0.74318598  0.03139693  0.48357298    -0.11900
C1640       C  0.74677654  0.50266367  0.46911177     0.05100
C1641       C  0.75118673  0.47628450  0.48784232    -0.07200
C1642       C  0.75161523  0.47909213  0.51987547    -0.08000
C1643       C  0.74772567  0.50776369  0.53420674    -0.02500
C1644       C  0.74361003  0.03422827  0.51562766     0.04300
N1645       N  0.73949855  0.06410284  0.52859691     0.66800
H1646       H  0.73984287  0.05207506  0.46976357     0.15700
H1647       H  0.75510513  0.45840553  0.53363430     0.15400
N1648       N  0.75550903  0.44643220  0.47488717     0.74500
O1649       O  0.76247315  0.08163718  0.53179226    -0.38900
O1650       O  0.71269866  0.07502482  0.53105414    -0.38900
O1651       O  0.78238712  0.43569464  0.47246962    -0.39600
O1652       O  0.73197550  0.92884424  0.47206392    -0.39600
C1653       C  0.99946056  0.21505150  0.48074006    -0.11900
C1654       C  0.50044922  0.24326168  0.46541051     0.05100
C1655       C  0.50528487  0.27007860  0.48307702    -0.07200
C1656       C  0.50794108  0.26786807  0.51504235    -0.08000
C1657       C  0.50624533  0.23935276  0.53041682    -0.02500
C1658       C  0.00269912  0.21260782  0.51275888     0.04300
N1659       N  0.00238297  0.18264150  0.52657184     0.66800
H1660       H  0.99681972  0.19404769  0.46754094     0.15700
H1661       H  0.51151931  0.28893781  0.52791822     0.15400
N1662       N  0.50819668  0.29979668  0.46903308     0.74500
O1663       O  0.97697798  0.17011156  0.53317540    -0.38900
O1664       O  0.02658030  0.16656540  0.52646940    -0.38900
O1665       O  0.48569666  0.31816182  0.46947508    -0.39600
O1666       O  0.53454236  0.30968665  0.46168559    -0.39600
C1667       C  0.88716559  0.21929966  0.36995637    -0.11900
C1668       C  0.90241375  0.24773545  0.37265907     0.05100
C1669       C  0.88463906  0.27488206  0.37467267    -0.07200
C1670       C  0.85250102  0.27296810  0.37475927    -0.08000
C1671       C  0.83726595  0.24447268  0.37251766    -0.02500
C1672       C  0.85505047  0.21742427  0.36958292     0.04300
N1673       N  0.84105629  0.18789487  0.36559670     0.66800
H1674       H  0.90024950  0.19810149  0.36780447     0.15700
H1675       H  0.83939738  0.29416926  0.37676953     0.15400
N1676       N  0.89867078  0.30459944  0.37670399     0.74500
O1677       O  0.83502284  0.17862722  0.33881159    -0.38900
O1678       O  0.84064469  0.16895884  0.38773262    -0.38900
O1679       O  0.90123691  0.32102946  0.35279582    -0.39600
O1680       O  0.90275882  0.31662580  0.40272903    -0.39600
C1681       C  0.63639699  0.21827816  0.36595170    -0.11900
C1682       C  0.65211827  0.24390377  0.37783472     0.05100
C1683       C  0.63508164  0.26983634  0.38726276    -0.07200
C1684       C  0.60307795  0.26991070  0.38434609    -0.08000
C1685       C  0.58735202  0.24445312  0.37228884    -0.02500
C1686       C  0.60431192  0.21845834  0.36279804     0.04300
N1687       N  0.58947842  0.19259931  0.34887266     0.66800
H1688       H  0.64913158  0.19837993  0.35806734     0.15700
H1689       H  0.59043148  0.28984868  0.39228206     0.15400
N1690       N  0.64975740  0.29587634  0.40091997     0.74500
O1691       O  0.57793355  0.19511802  0.32232178    -0.38900
O1692       O  0.58808903  0.16714462  0.36299342    -0.38900
O1693       O  0.65233900  0.32062844  0.38575592    -0.39600
O1694       O  0.65491545  0.29588755  0.42947964    -0.39600
C1695       C  0.49243626  0.48104887  0.51623814    -0.11900
C1696       C  0.49542869  0.00969926  0.53089151     0.05100
C1697       C  0.99843654  0.03603824  0.51225501    -0.07200
C1698       C  0.99785449  0.03352965  0.48014805    -0.08000
C1699       C  0.99450348  0.50481159  0.46540019    -0.02500
C1700       C  0.49180177  0.47854425  0.48421911     0.04300
N1701       N  0.48809446  0.44866467  0.47110994     0.66800
H1702       H  0.49031900  0.46007123  0.52982892     0.15700
H1703       H  0.00036982  0.05439969  0.46645985     0.15400
N1704       N  0.00225148  0.06584957  0.52549275     0.74500
O1705       O  0.51137733  0.43174027  0.46733553    -0.38900
O1706       O  0.95997388  0.43751924  0.46855585    -0.38900
O1707       O  0.52708424  0.07865372  0.52749685    -0.39600
O1708       O  0.97897323  0.08268276  0.52967479    -0.39600
C1709       C  0.85133543  0.02423265  0.38867725    -0.11900
C1710       C  0.83595687  0.00037875  0.37328351     0.05100
C1711       C  0.85339544  0.47815050  0.35734140    -0.07200
C1712       C  0.88553737  0.47964952  0.35779476    -0.08000
C1713       C  0.90079923  0.00328113  0.37358945    -0.02500
C1714       C  0.88349724  0.02582590  0.38904149     0.04300
N1715       N  0.89818268  0.04936957  0.40662140     0.66800
H1716       H  0.83827628  0.04143723  0.40117932     0.15700
H1717       H  0.89859162  0.46241561  0.34532134     0.15400
N1718       N  0.83874100  0.45489556  0.33937891     0.74500
O1719       O  0.90002015  0.07636154  0.39582139    -0.38900
O1720       O  0.90367901  0.04470954  0.43476935    -0.38900
O1721       O  0.83372004  0.45989413  0.31119804    -0.39600
O1722       O  0.83699744  0.42773021  0.34974122    -0.39600
C1723       C  0.60188088  0.02611533  0.38325115    -0.11900
C1724       C  0.58592900  0.99964039  0.37388067     0.05100
C1725       C  0.60305129  0.47316042  0.36597861    -0.07200
C1726       C  0.63520049  0.47334221  0.36836561    -0.08000
C1727       C  0.65094889  0.99958001  0.37835678    -0.02500
C1728       C  0.63397934  0.02628498  0.38570990     0.04300
N1729       N  0.64881531  0.05348095  0.39674153     0.66800
H1730       H  0.58934889  0.04679728  0.38929474     0.15700
H1731       H  0.64783461  0.45284865  0.36190635     0.15400
N1732       N  0.58822051  0.44601545  0.35484410     0.74500
O1733       O  0.65342749  0.57600681  0.37973662    -0.38900
O1734       O  0.65185200  0.05733548  0.42531883    -0.38900
O1735       O  0.58645195  0.44161596  0.32624497    -0.39600
O1736       O  0.58263220  0.92381371  0.37521002    -0.39600
C1737       C  0.77823113  0.23242221  0.77081129    -0.11900
C1738       C  0.75814441  0.25346738  0.78467782     0.05100
C1739       C  0.73891421  0.27186360  0.76597464    -0.07200
C1740       C  0.74046786  0.26930076  0.73395624    -0.08000
C1741       C  0.76028221  0.24799270  0.72008260    -0.02500
C1742       C  0.77918119  0.22927517  0.73879925     0.04300
N1743       N  0.80023634  0.20782540  0.72563568     0.66800
H1744       H  0.79308905  0.21802747  0.78497986     0.15700
H1745       H  0.72572042  0.28382926  0.71980407     0.15400
N1746       N  0.71840170  0.29387792  0.77909141     0.74500
O1747       O  0.82695560  0.21665907  0.71831606    -0.38900
O1748       O  0.79428493  0.17937583  0.72677345    -0.38900
O1749       O  0.72678360  0.32161512  0.78141796    -0.39600
O1750       O  0.69040175  0.28697093  0.78277750    -0.39600
C1751       C  0.77887174  0.02341153  0.76757776    -0.11900
C1752       C  0.75662883  0.50790282  0.78392818     0.05100
C1753       C  0.73193429  0.49417599  0.76772749    -0.07200
C1754       C  0.73106797  0.49567545  0.73563523    -0.08000
C1755       C  0.75396995  0.51126450  0.71913981    -0.02500
C1756       C  0.77767899  0.02550557  0.73540838     0.04300
N1757       N  0.80190630  0.04100043  0.71933961     0.66800
H1758       H  0.79779667  0.03434859  0.77971964     0.15700
H1759       H  0.71220649  0.48463629  0.72345795     0.15400
N1760       N  0.70796088  0.47788101  0.78341683     0.74500
O1761       O  0.80140471  0.06997549  0.71685525    -0.38900
O1762       O  0.82620192  0.02654600  0.71278375    -0.38900
O1763       O  0.68206060  0.49053185  0.78693824    -0.39600
O1764       O  0.71069249  0.44931971  0.78827376    -0.39600
C1765       C  0.78219770  0.36381728  0.86325009    -0.11900
C1766       C  0.75736654  0.34838868  0.87708223     0.05100
C1767       C  0.73356823  0.36570706  0.89063958    -0.07200
C1768       C  0.73458516  0.39784173  0.88938883    -0.08000
C1769       C  0.75927819  0.41330567  0.87535234    -0.02500
C1770       C  0.78341045  0.39598183  0.86231224     0.04300
N1771       N  0.80870758  0.41057710  0.84705464     0.66800
H1772       H  0.80066869  0.35081119  0.85261937     0.15700
H1773       H  0.71619158  0.41081329  0.90019293     0.15400
N1774       N  0.70912689  0.35110803  0.90722509     0.74500
O1775       O  0.83376426  0.41433623  0.86129175    -0.38900
O1776       O  0.80812681  0.41366254  0.81819033    -0.38900
O1777       O  0.71190692  0.34661432  0.93579175    -0.39600
O1778       O  0.68304890  0.34813625  0.89474733    -0.39600
C1779       C  0.73034716  0.11402724  0.88562949    -0.11900
C1780       C  0.75757218  0.09842605  0.87786109     0.05100
C1781       C  0.78422072  0.11579977  0.87071000    -0.07200
C1782       C  0.78308567  0.14793318  0.87111312    -0.08000
C1783       C  0.75590026  0.16348478  0.87877524    -0.02500
C1784       C  0.72943372  0.14624762  0.88659341     0.04300
N1785       N  0.70191840  0.16103328  0.89686121     0.66800
H1786       H  0.70982691  0.10117041  0.89178222     0.15700
H1787       H  0.80362947  0.16077769  0.86497573     0.15400
N1788       N  0.81248090  0.10132337  0.86220864     0.74500
O1789       O  0.67831117  0.16150720  0.87991450    -0.38900
O1790       O  0.70130802  0.17397665  0.92276156    -0.38900
O1791       O  0.81883551  0.09792467  0.83413427    -0.39600
O1792       O  0.83322304  0.09728905  0.88218294    -0.39600
C1793       C  0.52751038  0.26181207  0.76469648    -0.11900
C1794       C  0.50650164  0.24300566  0.78056905     0.05100
C1795       C  0.98685668  0.22321335  0.76392095    -0.07200
C1796       C  0.98900973  0.22212574  0.73182246    -0.08000
C1797       C  0.50961979  0.24162722  0.71571545    -0.02500
C1798       C  0.52886669  0.26166831  0.73251062     0.04300
N1799       N  0.55039794  0.28144796  0.71726903     0.66800
H1800       H  0.54262013  0.27717404  0.77736344     0.15700
H1801       H  0.97394570  0.20667170  0.71921217     0.15400
N1802       N  0.96546757  0.20334144  0.77921680     0.74500
O1803       O  0.54341170  0.30924811  0.71227431    -0.38900
O1804       O  0.57802535  0.27296278  0.71438749    -0.38900
O1805       O  0.93724972  0.21025679  0.77953711    -0.39600
O1806       O  0.97370567  0.17651201  0.78692570    -0.39600
C1807       C  0.99938875  0.02891753  0.76691274    -0.11900
C1808       C  0.00356979  0.99995932  0.78053520     0.05100
C1809       C  0.50819916  0.47383951  0.76193601    -0.07200
C1810       C  0.50802070  0.47729923  0.72997666    -0.08000
C1811       C  0.50323948  0.00630283  0.71615398    -0.02500
C1812       C  0.99942109  0.03247437  0.73493784     0.04300
N1813       N  0.99476546  0.06253052  0.72220858     0.66800
H1814       H  0.99598730  0.04903399  0.78132465     0.15700
H1815       H  0.51142699  0.45691766  0.71600208     0.15400
N1816       N  0.51254357  0.44392840  0.77515330     0.74500
O1817       O  0.96771153  0.07251528  0.71858725    -0.38900
O1818       O  0.01718057  0.08098844  0.72040011    -0.38900
O1819       O  0.49010451  0.42548579  0.77663521    -0.39600
O1820       O  0.53949251  0.43399690  0.77961273    -0.39600
C1821       C  0.52517377  0.38847835  0.88318252    -0.11900
C1822       C  0.49871212  0.40376622  0.87252079     0.05100
C1823       C  0.97345073  0.38655989  0.86151053    -0.07200
C1824       C  0.97531202  0.35437858  0.86158318    -0.08000
C1825       C  0.00187143  0.33910376  0.87206857    -0.02500
C1826       C  0.52703252  0.35635510  0.88332134     0.04300
N1827       N  0.55397113  0.34213732  0.89587565     0.66800
H1828       H  0.54461426  0.40155724  0.89195212     0.15700
H1829       H  0.95578981  0.34125072  0.85307138     0.15400
N1830       N  0.94617820  0.40085110  0.84979743     0.74500
O1831       O  0.57787666  0.33993189  0.87957568    -0.38900
O1832       O  0.05628155  0.33826409  0.92373836    -0.38900
O1833       O  0.44288952  0.40352263  0.82137261    -0.39600
O1834       O  0.92333665  0.40451787  0.86729550    -0.39600
C1835       C  0.52512717  0.10382594  0.88709825    -0.11900
C1836       C  0.50115131  0.08887782  0.87143741     0.05100
C1837       C  0.97824496  0.10704356  0.85639468    -0.07200
C1838       C  0.97922028  0.13912001  0.85825995    -0.08000
C1839       C  0.00291948  0.15406337  0.87426123    -0.02500
C1840       C  0.52625730  0.13596229  0.88872850     0.04300
N1841       N  0.54987845  0.15015257  0.90667585     0.66800
H1842       H  0.54270257  0.09042913  0.89894270     0.15700
H1843       H  0.96164444  0.15250040  0.84639415     0.15400
N1844       N  0.95503697  0.09300829  0.83780912     0.74500
O1845       O  0.54456598  0.15692493  0.93433819    -0.38900
O1846       O  0.57720241  0.15070438  0.89684094    -0.38900
O1847       O  0.92767490  0.09172809  0.84746642    -0.39600
O1848       O  0.45987671  0.08795445  0.81017390    -0.39600
C1849       C  0.72348133  0.22407329  0.26768807    -0.11900
C1850       C  0.74145799  0.24556507  0.28385196     0.05100
C1851       C  0.75886229  0.26748220  0.26714463    -0.07200
C1852       C  0.75895518  0.26689483  0.23501298    -0.08000
C1853       C  0.74104351  0.24553203  0.21893741    -0.02500
C1854       C  0.72280001  0.22422968  0.23539775     0.04300
N1855       N  0.70436097  0.20204053  0.21960829     0.66800
H1856       H  0.70983785  0.20721840  0.28016822     0.15700
H1857       H  0.77285744  0.28353253  0.22250296     0.15400
N1858       N  0.77728568  0.28997703  0.28245379     0.74500
O1859       O  0.71697531  0.17963543  0.20624751    -0.38900
O1860       O  0.67575606  0.20630556  0.21672293    -0.38900
O1861       O  0.80592350  0.28578054  0.28506729    -0.39600
O1862       O  0.76617067  0.31626878  0.28771242    -0.39600
C1863       C  0.77605885  0.26236322  0.02011139    -0.11900
C1864       C  0.74965020  0.24988160  0.03418043     0.05100
C1865       C  0.72541530  0.23914679  0.01539105    -0.07200
C1866       C  0.72760870  0.24167897  0.98343872    -0.08000
C1867       C  0.75367309  0.25463686  0.96938809    -0.02500
C1868       C  0.77815724  0.26504114  0.98803477     0.04300
N1869       N  0.80475337  0.27939429  0.97486476     0.66800
H1870       H  0.79487161  0.27088616  0.03409905     0.15700
H1871       H  0.70889379  0.23282410  0.96951107     0.15400
N1872       N  0.69919292  0.22386403  0.02813988     0.74500
O1873       O  0.80278019  0.30602017  0.96318442    -0.38900
O1874       O  0.83015346  0.26530423  0.97449202    -0.38900
O1875       O  0.67484971  0.23899124  0.03272589    -0.39600
O1876       O  0.69779884  0.19486462  0.02694070    -0.39600
C1877       C  0.72804275  0.47313528  0.23482700    -0.11900
C1878       C  0.74217766  0.99718602  0.21925741     0.05100
C1879       C  0.75609941  0.02107619  0.23600720    -0.07200
C1880       C  0.75501702  0.02076045  0.26808571    -0.08000
C1881       C  0.74123888  0.49662577  0.28390131    -0.02500
C1882       C  0.72780466  0.47225985  0.26708331     0.04300
N1883       N  0.71360586  0.44667068  0.28229562     0.66800
H1884       H  0.71755829  0.45446563  0.22209798     0.15700
H1885       H  0.76575751  0.03949957  0.28050020     0.15400
N1886       N  0.77123559  0.04602945  0.22074114     0.74500
O1887       O  0.68515762  0.44741697  0.28812362    -0.38900
O1888       O  0.72802062  0.92122603  0.28488901    -0.38900
O1889       O  0.75705828  0.57083362  0.21524807    -0.39600
O1890       O  0.80023371  0.04595693  0.21889854    -0.39600
C1891       C  0.72856052  0.99543366  0.98333810    -0.11900
C1892       C  0.75706608  0.00199546  0.96941633     0.05100
C1893       C  0.78409983  0.50634418  0.98833360    -0.07200
C1894       C  0.78083081  0.50475873  0.02039559    -0.08000
C1895       C  0.75116290  0.99899142  0.03438876    -0.02500
C1896       C  0.72535095  0.99396165  0.01527785     0.04300
N1897       N  0.69572359  0.98686083  0.02774273     0.66800
H1898       H  0.70827013  0.99131442  0.96929950     0.15700
H1899       H  0.80103679  0.50863817  0.03462143     0.15400
N1900       N  0.81365922  0.51347316  0.97575436     0.74500
O1901       O  0.67637821  0.00819828  0.03137498    -0.38900
O1902       O  0.68676350  0.95920381  0.02861947    -0.38900
O1903       O  0.82217288  0.54123059  0.97385377    -0.39600
O1904       O  0.83326585  0.49229620  0.97260175    -0.39600
C1905       C  0.72039591  0.35577566  0.11667416    -0.11900
C1906       C  0.74590093  0.33984016  0.12848018     0.05100
C1907       C  0.77134976  0.35672763  0.13964093    -0.07200
C1908       C  0.77099753  0.38890005  0.13832745    -0.08000
C1909       C  0.74552062  0.40486630  0.12640590    -0.02500
C1910       C  0.71997789  0.38792036  0.11544756     0.04300
N1911       N  0.69392026  0.40282658  0.10188140     0.66800
H1912       H  0.70074605  0.34317923  0.10764621     0.15700
H1913       H  0.79065145  0.40148347  0.14735397     0.15400
N1914       N  0.79716512  0.34168574  0.15353909     0.74500
O1915       O  0.69352208  0.40768679  0.07325326    -0.38900
O1916       O  0.66923543  0.40497106  0.11699404    -0.38900
O1917       O  0.82227226  0.33997786  0.13907568    -0.39600
O1918       O  0.79653986  0.33524180  0.18186727    -0.39600
C1919       C  0.71916048  0.10542678  0.11903345    -0.11900
C1920       C  0.74626242  0.08996270  0.12768569     0.05100
C1921       C  0.77236993  0.10741208  0.13617242    -0.07200
C1922       C  0.77108577  0.13951881  0.13527890    -0.08000
C1923       C  0.74421074  0.15495359  0.12612518    -0.02500
C1924       C  0.71792155  0.13757624  0.11813733     0.04300
N1925       N  0.69003007  0.15209679  0.10833869     0.66800
H1926       H  0.69884971  0.09252909  0.11238754     0.15700
H1927       H  0.79133340  0.15242059  0.14211390     0.15400
N1928       N  0.80010647  0.09314376  0.14673335     0.74500
O1929       O  0.68718150  0.16115242  0.08087771    -0.38900
O1930       O  0.66740911  0.15375653  0.12642834    -0.38900
O1931       O  0.82111140  0.08729291  0.12763457    -0.39600
O1932       O  0.80672183  0.09422384  0.17495177    -0.39600
C1933       C  0.97423457  0.23175856  0.26444704    -0.11900
C1934       C  0.49370518  0.24974104  0.28037960     0.05100
C1935       C  0.51356190  0.26969913  0.26405669    -0.07200
C1936       C  0.51364830  0.26949437  0.23191228    -0.08000
C1937       C  0.49360070  0.25030435  0.21551562    -0.02500
C1938       C  0.97351025  0.23213631  0.23223889     0.04300
N1939       N  0.95238108  0.21237726  0.21662032     0.66800
H1940       H  0.95845029  0.21677395  0.27689634     0.15700
H1941       H  0.52936566  0.28470058  0.21964091     0.15400
N1942       N  0.53461361  0.28943642  0.27979204     0.74500
O1943       O  0.96066326  0.18556447  0.20925939    -0.38900
O1944       O  0.92425978  0.21956330  0.21519527    -0.38900
O1945       O  0.56220406  0.28106818  0.28346912    -0.39600
O1946       O  0.52727938  0.31708674  0.28472503    -0.39600
C1947       C  0.97330755  0.24591839  0.01463104    -0.11900
C1948       C  0.50107259  0.25148204  0.03066015     0.05100
C1949       C  0.52881349  0.25439331  0.01389588    -0.07200
C1950       C  0.52832873  0.25267914  0.98177585    -0.08000
C1951       C  0.50068450  0.24801939  0.96559132    -0.02500
C1952       C  0.97285472  0.24403896  0.98255257     0.04300
N1953       N  0.94441723  0.23676271  0.96768484     0.66800
H1954       H  0.95189315  0.24226532  0.02703301     0.15700
H1955       H  0.54991112  0.25531978  0.96941869     0.15400
N1956       N  0.55764063  0.25953876  0.02893423     0.74500
O1957       O  0.93787597  0.20898346  0.96226119    -0.38900
O1958       O  0.92368386  0.25701181  0.96552579    -0.38900
O1959       O  0.57644853  0.23757102  0.03190270    -0.39600
O1960       O  0.56661659  0.28676586  0.03366690    -0.39600
C1961       C  0.46746228  0.99656388  0.23125168    -0.11900
C1962       C  0.99549426  0.50081971  0.21542704     0.05100
C1963       C  0.02251176  0.50538808  0.23314041    -0.07200
C1964       C  0.02082280  0.50563970  0.26528238    -0.08000
C1965       C  0.99277302  0.50108541  0.28038792    -0.02500
C1966       C  0.46590029  0.99664414  0.26343801     0.04300
N1967       N  0.43673526  0.99283778  0.27819814     0.66800
H1968       H  0.44633665  0.99327053  0.21827215     0.15700
H1969       H  0.04169641  0.50928720  0.27860742     0.15400
N1970       N  0.05181548  0.51019095  0.21899736     0.74500
O1971       O  0.42048674  0.01619074  0.28391328    -0.38900
O1972       O  0.42504097  0.96630207  0.28057526    -0.38900
O1973       O  0.06224184  0.53721106  0.21619682    -0.39600
O1974       O  0.06952919  0.48755181  0.21496781    -0.39600
C1975       C  0.96936430  0.49468043  0.01401320    -0.11900
C1976       C  0.99627377  0.50352246  0.02969019     0.05100
C1977       C  0.52324031  0.01065954  0.01277410    -0.07200
C1978       C  0.52263446  0.00823951  0.98072346    -0.08000
C1979       C  0.99547677  0.49920064  0.96462655    -0.02500
C1980       C  0.96873101  0.49239797  0.98187752     0.04300
N1981       N  0.94111026  0.48197686  0.96734826     0.66800
H1982       H  0.94871835  0.48870092  0.02683319     0.15700
H1983       H  0.54329983  0.01426669  0.96795524     0.15400
N1984       N  0.55074458  0.02156347  0.02717135     0.74500
O1985       O  0.93732796  0.45357350  0.96257638    -0.38900
O1986       O  0.91853977  0.50007790  0.96457843    -0.38900
O1987       O  0.57373376  0.00394796  0.02956897    -0.39600
O1988       O  0.55396609  0.05001317  0.03207332    -0.39600
C1989       C  0.96913269  0.36008972  0.12074500    -0.11900
C1990       C  0.99756919  0.34471917  0.12203226     0.05100
C1991       C  0.52498890  0.36209693  0.12233557    -0.07200
C1992       C  0.52346507  0.39419127  0.12178140    -0.08000
C1993       C  0.49508770  0.40964281  0.12099794    -0.02500
C1994       C  0.96755585  0.39222426  0.11975109     0.04300
N1995       N  0.93795482  0.40643509  0.11745847     0.66800
H1996       H  0.94772996  0.34709557  0.12025466     0.15700
H1997       H  0.54492878  0.40708955  0.12212752     0.15400
N1998       N  0.55466052  0.34789223  0.12284725     0.74500
O1999       O  0.92665784  0.41195547  0.09124743    -0.38900
O2000       O  0.92082099  0.40750298  0.14083701    -0.38900
O2001       O  0.56967561  0.34550359  0.09815607    -0.39600
O2002       O  0.56819987  0.34373317  0.14822429    -0.39600
C2003       C  0.52318677  0.14377972  0.13279472    -0.11900
C2004       C  0.99687774  0.15970243  0.12293220     0.05100
C2005       C  0.97079426  0.14267667  0.11353468    -0.07200
C2006       C  0.97160457  0.11057008  0.11428856    -0.08000
C2007       C  0.49809904  0.09458800  0.12396477    -0.02500
C2008       C  0.52409112  0.11163890  0.13350875     0.04300
N2009       N  0.55123052  0.09682143  0.14486583     0.66800
H2010       H  0.54328828  0.15648111  0.14059432     0.15700
H2011       H  0.95136581  0.09793710  0.10672968     0.15400
N2012       N  0.94361715  0.15748014  0.10224029     0.74500
O2013       O  0.57378581  0.09280513  0.12707593    -0.38900
O2014       O  0.55498046  0.09371044  0.17349090    -0.38900
O2015       O  0.94023773  0.16150245  0.07367270    -0.39600
O2016       O  0.92085593  0.16095289  0.11988560    -0.39600
O2017       O  0.52147400  0.50331061  0.07927506    -0.71400
O2018       O  0.52114493  0.00043406  0.16677816    -0.71600
O2019       O  0.52049126  0.95830539  0.12188034    -0.71500
O2020       O  0.52223512  0.54531897  0.12420771    -0.71500
O2021       O  0.97216327  0.54635435  0.12278376    -0.71500
O2022       O  0.97038257  0.95914778  0.12211656    -0.71500
O2023       O  0.97098438  0.50205597  0.16605774    -0.71400
O2024       O  0.97148367  0.00344185  0.07894671    -0.71600
V2025       V  0.52045470  0.00181952  0.12309226     1.35200
V2026       V  0.97227309  0.00276958  0.12262048     1.35200
C2027       C  0.99652900  0.00368735  0.06411817     0.77800
C2028       C  0.99598000  0.00114159  0.18147261     0.77900
C2029       C  0.49527385  0.94371882  0.12173623     0.77700
C2030       C  0.49755454  0.56063339  0.12387054     0.77700
O2031       O  0.97074992  0.75055796  0.16608724    -0.71400
O2032       O  0.97431367  0.75354807  0.07887564    -0.71600
O2033       O  0.97219954  0.70876070  0.12122820    -0.71500
O2034       O  0.97277400  0.79576993  0.12343795    -0.71500
O2035       O  0.52258956  0.79541871  0.12354431    -0.71500
O2036       O  0.52183550  0.70822445  0.12537260    -0.71500
O2037       O  0.52430914  0.75118884  0.08093005    -0.71400
O2038       O  0.52024087  0.75248572  0.16805647    -0.71600
V2039       V  0.97346553  0.75221588  0.12246836     1.35200
V2040       V  0.52130157  0.75183119  0.12446785     1.35200
C2041       C  0.49464097  0.75079650  0.18178217     0.77800
C2042       C  0.50004873  0.75240040  0.06488000     0.77900
C2043       C  0.99695827  0.69368014  0.12306885     0.77700
C2044       C  0.99782043  0.81064742  0.12309671     0.77700
O2045       O  0.72059309  0.95407899  0.12458304    -0.71400
O2046       O  0.72178503  0.54113287  0.12669627    -0.71600
O2047       O  0.72326237  0.99899453  0.08215910    -0.71500
O2048       O  0.71940920  0.49593627  0.16922375    -0.71500
O2049       O  0.76900802  0.99789916  0.17180872    -0.71500
O2050       O  0.77379796  0.49689918  0.08462125    -0.71500
O2051       O  0.77174831  0.54103331  0.12744157    -0.71400
O2052       O  0.77038744  0.95360161  0.12893816    -0.71600
V2053       V  0.72200473  0.99755967  0.12588545     1.35200
V2054       V  0.77051518  0.49735722  0.12809242     1.35200
C2055       C  0.74529597  0.93892903  0.12661614     0.77800
C2056       C  0.74681106  0.55602564  0.12720337     0.77900
C2057       C  0.74973424  0.49814385  0.06826824     0.77700
C2058       C  0.74373156  0.49708561  0.18522897     0.77700
O2059       O  0.71781363  0.74498026  0.16936555    -0.71400
O2060       O  0.72222384  0.75061148  0.08220754    -0.71600
O2061       O  0.71967987  0.70430562  0.12345844    -0.71500
O2062       O  0.72030657  0.79133090  0.12808459    -0.71500
O2063       O  0.77030545  0.79102443  0.12885451    -0.71500
O2064       O  0.76945438  0.70393321  0.12773687    -0.71500
O2065       O  0.77207358  0.74837307  0.08466101    -0.71400
O2066       O  0.76779171  0.74684908  0.17171599    -0.71600
V2067       V  0.72094309  0.74780388  0.12580981     1.35200
V2068       V  0.76893359  0.74749485  0.12817992     1.35200
C2069       C  0.74215668  0.74540340  0.18535332     0.77800
C2070       C  0.74791239  0.75042525  0.06851445     0.77900
C2071       C  0.74445130  0.68919585  0.12529353     0.77700
C2072       C  0.74543356  0.80604709  0.12897888     0.77700
O2073       O  0.52622729  0.49563162  0.82989420    -0.71400
O2074       O  0.52232351  0.99683760  0.91705156    -0.71600
O2075       O  0.52369075  0.95262483  0.87430077    -0.71500
O2076       O  0.52490941  0.53967473  0.87267741    -0.71500
O2077       O  0.97481352  0.54092183  0.87053622    -0.71500
O2078       O  0.97365481  0.95343153  0.87095165    -0.71500
O2079       O  0.97203747  0.49702842  0.91448944    -0.71400
O2080       O  0.97630049  0.99766251  0.82751318    -0.71600
V2081       V  0.52333330  0.99616951  0.87349845     1.35200
V2082       V  0.97518909  0.99719103  0.87108802     1.35200
C2083       C  0.00202688  0.99735051  0.81401442     0.77800
C2084       C  0.99651881  0.99754726  0.93080617     0.77900
C2085       C  0.49864648  0.93786139  0.87268534     0.77700
C2086       C  0.50020169  0.55495629  0.87145865     0.77700
O2087       O  0.97664944  0.74762746  0.91578881    -0.71400
O2088       O  0.97962217  0.74436292  0.82855522    -0.71600
O2089       O  0.97826116  0.70270820  0.87382747    -0.71500
O2090       O  0.97786617  0.78980167  0.87046971    -0.71500
O2091       O  0.52813555  0.78993104  0.87362567    -0.71500
O2092       O  0.52869898  0.70246100  0.87469785    -0.71500
O2093       O  0.52992416  0.74600781  0.83031708    -0.71400
O2094       O  0.52703072  0.74648418  0.91754899    -0.71600
V2095       V  0.97907627  0.74619212  0.87220070     1.35200
V2096       V  0.52750290  0.74620793  0.87396468     1.35200
C2097       C  0.50158831  0.74714183  0.93164416     0.77800
C2098       C  0.50543638  0.74435175  0.81462160     0.77900
C2099       C  0.00327603  0.68793303  0.87463129     0.77700
C2100       C  0.00266700  0.80500722  0.87199798     0.77700
O2101       O  0.73368056  0.96178977  0.87686871    -0.71400
O2102       O  0.73423570  0.54941597  0.87702690    -0.71600
O2103       O  0.73237825  0.00570603  0.83347288    -0.71500
O2104       O  0.73461230  0.50509876  0.92008040    -0.71500
O2105       O  0.78338509  0.00405465  0.92038252    -0.71500
O2106       O  0.78333485  0.50787447  0.83233166    -0.71500
O2107       O  0.78419233  0.54933888  0.87782958    -0.71400
O2108       O  0.78363044  0.96244948  0.87468805    -0.71600
V2109       V  0.73406769  0.00546429  0.87688029     1.35200
V2110       V  0.78318856  0.50582384  0.87620945     1.35200
C2111       C  0.75885051  0.94722330  0.87551348     0.77800
C2112       C  0.75929173  0.56431761  0.87762113     0.77900
C2113       C  0.75793545  0.50718577  0.81793355     0.77700
C2114       C  0.75947060  0.50378011  0.93511028     0.77700
O2115       O  0.73143480  0.75456246  0.92004037    -0.71400
O2116       O  0.73341258  0.75718020  0.83293942    -0.71600
O2117       O  0.73255285  0.71223632  0.87576782    -0.71500
O2118       O  0.73253918  0.79949141  0.87772489    -0.71500
O2119       O  0.78253107  0.79940808  0.87618039    -0.71500
O2120       O  0.78241450  0.71229468  0.87948441    -0.71500
O2121       O  0.78335429  0.75415582  0.83413624    -0.71400
O2122       O  0.78135232  0.75694691  0.92139923    -0.71600
V2123       V  0.73343721  0.75588348  0.87658438     1.35200
V2124       V  0.78147174  0.75579664  0.87774287     1.35200
C2125       C  0.75600248  0.75532614  0.93562294     0.77800
C2126       C  0.75867501  0.75529271  0.81868850     0.77900
C2127       C  0.75747326  0.69737095  0.87817942     0.77700
C2128       C  0.75758303  0.81433355  0.87719029     0.77700
O2129       O  0.49481233  0.52848456  0.41574958    -0.71400
O2130       O  0.99317737  0.52664567  0.32839833    -0.71600
O2131       O  0.95010020  0.52822024  0.37286172    -0.71500
O2132       O  0.53778289  0.52618528  0.37169554    -0.71500
O2133       O  0.53610876  0.97608661  0.37312436    -0.71500
O2134       O  0.94912174  0.97817152  0.37382255    -0.71500
O2135       O  0.49174606  0.97667880  0.32988344    -0.71400
O2136       O  0.99311782  0.97824028  0.41720820    -0.71600
V2137       V  0.99384990  0.52630799  0.37204433     1.35200
V2138       V  0.99260320  0.97826490  0.37342270     1.35200
C2139       C  0.99389441  0.00355495  0.43150088     0.77800
C2140       C  0.99223789  0.00143622  0.31440622     0.77900
C2141       C  0.93482526  0.50338864  0.37346705     0.77700
C2142       C  0.55199378  0.50073068  0.37235879     0.77700
O2143       O  0.99555734  0.72066059  0.41604783    -0.71400
O2144       O  0.49193068  0.72297963  0.32857494    -0.71600
O2145       O  0.53765719  0.72054077  0.37015191    -0.71500
O2146       O  0.95105312  0.72272896  0.37301292    -0.71500
O2147       O  0.95150228  0.77267719  0.37341011    -0.71500
O2148       O  0.53887844  0.77039192  0.37354727    -0.71500
O2149       O  0.99575386  0.77379396  0.33015798    -0.71400
O2150       O  0.49565202  0.76989689  0.41714565    -0.71600
V2151       V  0.49418156  0.72241870  0.37222323     1.35200
V2152       V  0.49529075  0.77041984  0.37350821     1.35200
C2153       C  0.49721298  0.74449879  0.43146674     0.77800
C2154       C  0.49361605  0.74845958  0.31440142     0.77900
C2155       C  0.55315951  0.74512082  0.37166593     0.77700
C2156       C  0.93630646  0.74780609  0.37308678     0.77700
O2157       O  0.69987055  0.97428414  0.38004988    -0.71400
O2158       O  0.78733466  0.97430360  0.37463641    -0.71600
O2159       O  0.74632889  0.97565344  0.42112759    -0.71500
O2160       O  0.74075581  0.97258109  0.33397574    -0.71500
O2161       O  0.74310113  0.52275176  0.33188844    -0.71500
O2162       O  0.74432958  0.52560545  0.41903690    -0.71500
O2163       O  0.78716897  0.52446969  0.37491911    -0.71400
O2164       O  0.70014772  0.52432703  0.37607957    -0.71600
V2165       V  0.74358336  0.97512229  0.37747771     1.35200
V2166       V  0.74367429  0.52329327  0.37550146     1.35200
C2167       C  0.68513668  0.49949386  0.37826612     0.77800
C2168       C  0.80217035  0.49961156  0.37401081     0.77900
C2169       C  0.74581066  0.00109742  0.43514353     0.77700
C2170       C  0.74133952  0.99707626  0.31813153     0.77700
O2171       O  0.70063360  0.71850935  0.37835883    -0.71400
O2172       O  0.78794851  0.71854452  0.37436783    -0.71600
O2173       O  0.74646610  0.71804346  0.42032257    -0.71500
O2174       O  0.74194390  0.71909148  0.33273787    -0.71500
O2175       O  0.74308117  0.76911391  0.33322848    -0.71500
O2176       O  0.74604324  0.76796932  0.42045358    -0.71500
O2177       O  0.78794542  0.76848027  0.37531884    -0.71400
O2178       O  0.70088101  0.76852222  0.37819211    -0.71600
V2179       V  0.74426156  0.71947685  0.37650345     1.35200
V2180       V  0.74443402  0.76751781  0.37682155     1.35200
C2181       C  0.68585495  0.74357918  0.37850721     0.77800
C2182       C  0.80290354  0.74356605  0.37410030     0.77900
C2183       C  0.74717621  0.74291952  0.43541273     0.77700
C2184       C  0.74204987  0.74438392  0.31808757     0.77700
O2185       O  0.00214583  0.98367300  0.66658074    -0.71400
O2186       O  0.49696477  0.98536156  0.58003687    -0.71600
O2187       O  0.54319813  0.98520912  0.62102262    -0.71500
O2188       O  0.95586988  0.98445111  0.62607392    -0.71500
O2189       O  0.95616484  0.53446087  0.62458043    -0.71500
O2190       O  0.54304561  0.53513322  0.62285198    -0.71500
O2191       O  0.99846837  0.53500723  0.57958919    -0.71400
O2192       O  0.50061614  0.53365443  0.66762123    -0.71600
V2193       V  0.49956537  0.98566408  0.62337822     1.35200
V2194       V  0.49949148  0.53370533  0.62377578     1.35200
C2195       C  0.50205922  0.50821760  0.68200334     0.79400
C2196       C  0.49712439  0.51040524  0.56492874     0.77900
C2197       C  0.55798661  0.01034291  0.62178262     0.77700
C2198       C  0.94107968  0.00952333  0.62631950     0.77700
O2199       O  0.50916651  0.71425610  0.58007201    -0.71400
O2200       O  0.00854964  0.71504006  0.66764802    -0.71600
O2201       O  0.96539259  0.71476361  0.62326380    -0.71500
O2202       O  0.55265559  0.71436260  0.62443130    -0.71500
O2203       O  0.55323461  0.76432733  0.62180968    -0.71500
O2204       O  0.96602361  0.76474936  0.62438935    -0.71500
O2205       O  0.51129157  0.76569517  0.66647564    -0.71400
O2206       O  0.00809593  0.76380841  0.57958332    -0.71600
V2207       V  0.00908752  0.71533859  0.62383253     1.35200
V2208       V  0.00962883  0.76339139  0.62308668     1.35200
C2209       C  0.00797557  0.73879348  0.56482547     0.77800
C2210       C  0.01012478  0.74029302  0.68199296     0.77900
C2211       C  0.95078118  0.73992252  0.62374201     0.77700
C2212       C  0.56785568  0.73922038  0.62339516     0.77700
O2213       O  0.70651506  0.98467520  0.62725409    -0.71400
O2214       O  0.79373392  0.98621484  0.62835607    -0.71600
O2215       O  0.74972140  0.98615441  0.67129460    -0.71500
O2216       O  0.75056862  0.98463852  0.58423576    -0.71500
O2217       O  0.74688963  0.53436105  0.58266952    -0.71500
O2218       O  0.75298307  0.53611197  0.67000248    -0.71500
O2219       O  0.79323034  0.53596872  0.62355605    -0.71400
O2220       O  0.70612501  0.53456206  0.62900730    -0.71600
V2221       V  0.75013171  0.98638104  0.62775370     1.35200
V2222       V  0.74973889  0.53433853  0.62635968     1.35200
C2223       C  0.69143593  0.50937242  0.62819174     0.77800
C2224       C  0.80846571  0.51127749  0.62561434     0.77900
C2225       C  0.75198624  0.01132050  0.68552861     0.77700
C2226       C  0.74836197  0.00917058  0.56853350     0.77700
O2227       O  0.75664843  0.71655851  0.58527097    -0.71400
O2228       O  0.76211279  0.72006318  0.67277085    -0.71600
O2229       O  0.71588813  0.71781006  0.63145874    -0.71500
O2230       O  0.80286730  0.71848035  0.62659516    -0.71500
O2231       O  0.80272375  0.76849336  0.62671920    -0.71500
O2232       O  0.71521354  0.76768661  0.62728480    -0.71500
O2233       O  0.75912403  0.76998634  0.67030784    -0.71400
O2234       O  0.75841701  0.76644250  0.58325944    -0.71600
V2235       V  0.75938918  0.71917709  0.62900108     1.35200
V2236       V  0.75893914  0.76718932  0.62689020     1.35200
C2237       C  0.75660881  0.74103319  0.56924938     0.77800
C2238       C  0.76098142  0.74573067  0.68639017     0.77900
C2239       C  0.70065401  0.74254356  0.62973414     0.77700
C2240       C  0.81771874  0.74352272  0.62653688     0.77700
C2241       C  0.90170319  0.76648501  0.63585160    -0.11900
C2242       C  0.91674266  0.74057172  0.62391568     0.05100
C2243       C  0.89891315  0.71578832  0.61280027    -0.07200
C2244       C  0.86678533  0.71726918  0.61404529    -0.08000
C2245       C  0.85174773  0.74316108  0.62600395    -0.02500
C2246       C  0.86955192  0.76790610  0.63719309     0.04300
N2247       N  0.85547565  0.79387741  0.65147222     0.66800
H2248       H  0.91501707  0.78557943  0.64496977     0.15700
H2249       H  0.85347935  0.69812204  0.60501960     0.15400
N2250       N  0.91293950  0.68954258  0.59896385     0.74500
O2251       O  0.84907559  0.79271587  0.67975176    -0.38900
O2252       O  0.85482824  0.81945732  0.63753389    -0.38900
O2253       O  0.91384233  0.66429848  0.61349526    -0.39600
O2254       O  0.91875513  0.68999163  0.57054732    -0.39600
C2255       C  0.61670129  0.76563757  0.63660648    -0.11900
C2256       C  0.60183449  0.73940836  0.62498987     0.05100
C2257       C  0.61972777  0.71394556  0.61587958    -0.07200
C2258       C  0.65181881  0.71530526  0.61821223    -0.08000
C2259       C  0.66667590  0.74168884  0.62945419    -0.02500
C2260       C  0.64876999  0.76691614  0.63911478     0.04300
N2261       N  0.66263593  0.79337050  0.65283074     0.66800
H2262       H  0.60327915  0.78518757  0.64444575     0.15700
H2263       H  0.66526210  0.69575425  0.61041132     0.15400
N2264       N  0.60584362  0.68710603  0.60296254     0.74500
O2265       O  0.66532852  0.81792683  0.63737265    -0.38900
O2266       O  0.66641397  0.79402974  0.68159485    -0.38900
O2267       O  0.60310335  0.68505199  0.57416082    -0.39600
O2268       O  0.60194672  0.66345504  0.61953794    -0.39600
C2269       C  0.89176986  0.53496737  0.61360821    -0.11900
C2270       C  0.90716081  0.01001616  0.62738751     0.05100
C2271       C  0.88997530  0.98597282  0.64101734    -0.07200
C2272       C  0.85783154  0.98684355  0.64002837    -0.08000
C2273       C  0.84242513  0.51153372  0.62582068    -0.02500
C2274       C  0.85962967  0.53603675  0.61296226     0.04300
N2275       N  0.84494724  0.56165268  0.59825996     0.66800
H2276       H  0.90465400  0.55369155  0.60298216     0.15700
H2277       H  0.84496103  0.96819966  0.65080544     0.15400
N2278       N  0.90470133  0.96141318  0.65737939     0.74500
O2279       O  0.84137381  0.58640916  0.61287782    -0.38900
O2280       O  0.84130699  0.56159464  0.56947119    -0.38900
O2281       O  0.90985823  0.96422214  0.68578838    -0.39600
O2282       O  0.90649022  0.93514418  0.64526417    -0.39600
C2283       C  0.60766777  0.98272047  0.62816633    -0.11900
C2284       C  0.59209418  0.01050161  0.62246003     0.05100
C2285       C  0.60965565  0.53789412  0.61911119    -0.07200
C2286       C  0.64173766  0.53694701  0.62159761    -0.08000
C2287       C  0.65731140  0.50916519  0.62735057    -0.02500
C2288       C  0.63974686  0.98180293  0.63076483     0.04300
N2289       N  0.65408794  0.95299218  0.63783246     0.66800
H2290       H  0.59482402  0.96143453  0.63133369     0.15700
H2291       H  0.65457130  0.55824805  0.61849653     0.15400
N2292       N  0.59527228  0.56681185  0.61256976     0.74500
O2293       O  0.65842184  0.94545433  0.66557313    -0.38900
O2294       O  0.65653187  0.93286306  0.61717807    -0.38900
O2295       O  0.59195566  0.58619729  0.63380346    -0.39600
O2296       O  0.59137342  0.57513472  0.58498554    -0.39600
C2297       C  0.75758511  0.76847394  0.51871422    -0.11900
C2298       C  0.75431939  0.74058832  0.53499801     0.05100
C2299       C  0.74842974  0.71343548  0.51811860    -0.07200
C2300       C  0.74621908  0.71471719  0.48589931    -0.08000
C2301       C  0.74948164  0.74267031  0.46966882    -0.02500
C2302       C  0.75519357  0.76981134  0.48662929     0.04300
N2303       N  0.75907003  0.79901241  0.47175251     0.66800
H2304       H  0.76210992  0.78973662  0.53096984     0.15700
H2305       H  0.74164585  0.69353720  0.47352175     0.15400
N2306       N  0.74401701  0.68443630  0.53321920     0.74500
O2307       O  0.73635419  0.81696655  0.46922525    -0.38900
O2308       O  0.78586821  0.80911283  0.46669382    -0.38900
O2309       O  0.71704326  0.67510869  0.53879984    -0.39600
O2310       O  0.76627613  0.66589798  0.53553518    -0.39600
C2311       C  0.74296299  0.53136039  0.48342959    -0.11900
C2312       C  0.74675460  0.00265046  0.46929127     0.05100
C2313       C  0.75095824  0.97625712  0.48804761    -0.07200
C2314       C  0.75141806  0.97909846  0.52007205    -0.08000
C2315       C  0.74775494  0.00781626  0.53436960    -0.02500
C2316       C  0.74335740  0.53415826  0.51548984     0.04300
N2317       N  0.73896843  0.56397838  0.52849178     0.66800
H2318       H  0.73944220  0.55202381  0.46964352     0.15700
H2319       H  0.75472430  0.95839461  0.53385141     0.15400
N2320       N  0.75499227  0.94634745  0.47512917     0.74500
O2321       O  0.76176769  0.58174801  0.53164412    -0.38900
O2322       O  0.71206232  0.57461825  0.53102531    -0.38900
O2323       O  0.78176072  0.93532955  0.47275937    -0.39600
O2324       O  0.73267168  0.42868862  0.47186158    -0.39600
C2325       C  0.99922222  0.71492592  0.48078021    -0.11900
C2326       C  0.50025371  0.74332985  0.46555146     0.05100
C2327       C  0.50503589  0.77016585  0.48320523    -0.07200
C2328       C  0.50772475  0.76797350  0.51517256    -0.08000
C2329       C  0.50611765  0.73945804  0.53055918    -0.02500
C2330       C  0.00249178  0.71248228  0.51279565     0.04300
N2331       N  0.00226707  0.68251191  0.52660114     0.66800
H2332       H  0.99663223  0.69391822  0.46757773     0.15700
H2333       H  0.51125866  0.78905589  0.52803977     0.15400
N2334       N  0.50786394  0.79988467  0.46914541     0.74500
O2335       O  0.97690018  0.66989843  0.53319307    -0.38900
O2336       O  0.02651706  0.66651527  0.52650634    -0.38900
O2337       O  0.48531442  0.81818912  0.46958297    -0.39600
O2338       O  0.53418090  0.80984169  0.46178457    -0.39600
C2339       C  0.88693372  0.71900502  0.37029568    -0.11900
C2340       C  0.90216990  0.74747730  0.37270830     0.05100
C2341       C  0.88437413  0.77462668  0.37452347    -0.07200
C2342       C  0.85223745  0.77268760  0.37471392    -0.08000
C2343       C  0.83701346  0.74416260  0.37275697    -0.02500
C2344       C  0.85481432  0.71710209  0.37001475     0.04300
N2345       N  0.84083172  0.68752735  0.36632381     0.66800
H2346       H  0.90002966  0.69779682  0.36831103     0.15700
H2347       H  0.83912536  0.79390050  0.37655076     0.15400
N2348       N  0.89838248  0.80437945  0.37619955     0.74500
O2349       O  0.83472531  0.67802453  0.33963850    -0.38900
O2350       O  0.84049899  0.66878165  0.38862136    -0.38900
O2351       O  0.90092321  0.82052922  0.35210030    -0.39600
O2352       O  0.90247599  0.81671589  0.40207724    -0.39600
C2353       C  0.63613330  0.71838486  0.36545633    -0.11900
C2354       C  0.65186212  0.74372261  0.37791572     0.05100
C2355       C  0.63485523  0.76945378  0.38790592    -0.07200
C2356       C  0.60285144  0.76963037  0.38496921    -0.08000
C2357       C  0.58711713  0.74445711  0.37235153    -0.02500
C2358       C  0.60405061  0.71867166  0.36228337     0.04300
N2359       N  0.58918795  0.69318016  0.34772850     0.66800
H2360       H  0.64886570  0.69866995  0.35712801     0.15700
H2361       H  0.59020561  0.78937945  0.39335803     0.15400
N2362       N  0.64956292  0.79511748  0.40221879     0.74500
O2363       O  0.57737480  0.69644206  0.32137132    -0.38900
O2364       O  0.58799199  0.66732531  0.36111757    -0.38900
O2365       O  0.65206206  0.82028040  0.38773454    -0.39600
O2366       O  0.65485929  0.79433283  0.43074801    -0.39600
C2367       C  0.49211002  0.98102060  0.51637010    -0.11900
C2368       C  0.49576389  0.50972211  0.53076703     0.05100
C2369       C  0.99872826  0.53602208  0.51197930    -0.07200
C2370       C  0.99812592  0.53350858  0.47987323    -0.08000
C2371       C  0.99424302  0.00483432  0.46566888    -0.02500
C2372       C  0.49146663  0.97850883  0.48435201     0.04300
N2373       N  0.48777820  0.94862434  0.47124865     0.66800
H2374       H  0.49001654  0.96004363  0.52996588     0.15700
H2375       H  0.00063327  0.55437681  0.46618059     0.15400
N2376       N  0.00257301  0.56583295  0.52520946     0.74500
O2377       O  0.51107067  0.93171102  0.46748329    -0.38900
O2378       O  0.95964732  0.93759034  0.46877006    -0.38900
O2379       O  0.52752005  0.57862212  0.52741658    -0.39600
O2380       O  0.97931538  0.58270193  0.52936227    -0.39600
C2381       C  0.85149090  0.52431897  0.38849080    -0.11900
C2382       C  0.83608616  0.50045965  0.37313219     0.05100
C2383       C  0.85328895  0.97811307  0.35745924    -0.07200
C2384       C  0.88542948  0.97964491  0.35791830    -0.08000
C2385       C  0.90093367  0.50329533  0.37342518    -0.02500
C2386       C  0.88365502  0.52587964  0.38884806     0.04300
N2387       N  0.89836541  0.54943889  0.40638636     0.66800
H2388       H  0.83845129  0.54155557  0.40096794     0.15700
H2389       H  0.89850438  0.96244126  0.34542353     0.15400
N2390       N  0.83865816  0.95487213  0.33946043     0.74500
O2391       O  0.90020493  0.57641674  0.39555112    -0.38900
O2392       O  0.90387736  0.54481325  0.43453669    -0.38900
O2393       O  0.83366500  0.95989677  0.31127911    -0.39600
O2394       O  0.83691750  0.92769548  0.34979305    -0.39600
C2395       C  0.60199817  0.52616063  0.38335407    -0.11900
C2396       C  0.58607494  0.49985356  0.37348884     0.05100
C2397       C  0.60288950  0.97278888  0.36688478    -0.07200
C2398       C  0.63504328  0.97300797  0.36921698    -0.08000
C2399       C  0.65107890  0.49973917  0.37803151    -0.02500
C2400       C  0.63409730  0.52629844  0.38584319     0.04300
N2401       N  0.64892320  0.55327408  0.39740631     0.66800
H2402       H  0.58943911  0.54670558  0.38978607     0.15700
H2403       H  0.64765510  0.95237872  0.36314867     0.15400
N2404       N  0.58803897  0.94539639  0.35639176     0.74500
O2405       O  0.65330084  0.07587453  0.37863974    -0.38900
O2406       O  0.65193257  0.55658013  0.42605831    -0.38900
O2407       O  0.58636375  0.94026686  0.32791341    -0.39600
O2408       O  0.58292212  0.42395008  0.37312710    -0.39600
C2409       C  0.77913855  0.73216607  0.77089010    -0.11900
C2410       C  0.75935527  0.75343036  0.78485435     0.05100
C2411       C  0.74017544  0.77197589  0.76625768    -0.07200
C2412       C  0.74142184  0.76930776  0.73424031    -0.08000
C2413       C  0.76089171  0.74776139  0.72025338    -0.02500
C2414       C  0.77978938  0.72892480  0.73886692     0.04300
N2415       N  0.80052726  0.70724248  0.72558106     0.66800
H2416       H  0.79394951  0.71765742  0.78499152     0.15700
H2417       H  0.72670041  0.78395260  0.72018123     0.15400
N2418       N  0.72002705  0.79425341  0.77948867     0.74500
O2419       O  0.82724586  0.71581468  0.71795740    -0.38900
O2420       O  0.79432255  0.67885102  0.72683965    -0.38900
O2421       O  0.72878652  0.82187819  0.78177030    -0.39600
O2422       O  0.69196314  0.78771106  0.78333955    -0.39600
C2423       C  0.77982739  0.52317879  0.76727614    -0.11900
C2424       C  0.75576958  0.00784377  0.78409785     0.05100
C2425       C  0.73130175  0.99388058  0.76776685    -0.07200
C2426       C  0.73057452  0.99542244  0.73567235    -0.08000
C2427       C  0.75338625  0.01128837  0.71930613    -0.02500
C2428       C  0.77850278  0.52522864  0.73510560     0.04300
N2429       N  0.80282394  0.54042074  0.71889334     0.66800
H2430       H  0.79892931  0.53392389  0.77931368     0.15700
H2431       H  0.71189321  0.98419612  0.72339112     0.15400
N2432       N  0.70743463  0.97730376  0.78332345     0.74500
O2433       O  0.80263990  0.56939598  0.71636078    -0.38900
O2434       O  0.82691773  0.52567842  0.71223877    -0.38900
O2435       O  0.68138352  0.98967080  0.78674513    -0.39600
O2436       O  0.71044078  0.94876032  0.78811868    -0.39600
C2437       C  0.78259980  0.86396757  0.86368689    -0.11900
C2438       C  0.75785128  0.84828440  0.87737859     0.05100
C2439       C  0.73379765  0.86536530  0.89079371    -0.07200
C2440       C  0.73446790  0.89751472  0.88951331    -0.08000
C2441       C  0.75908374  0.91324171  0.87562675    -0.02500
C2442       C  0.78348682  0.89615155  0.86275491     0.04300
N2443       N  0.80877242  0.91099819  0.84771855     0.66800
H2444       H  0.80126673  0.85114508  0.85317542     0.15700
H2445       H  0.71587418  0.91029289  0.90020359     0.15400
N2446       N  0.70945177  0.85051223  0.90729989     0.74500
O2447       O  0.83364649  0.91504743  0.86219259    -0.38900
O2448       O  0.80844257  0.91403956  0.81884628    -0.38900
O2449       O  0.71234026  0.84568771  0.93580493    -0.39600
O2450       O  0.68336185  0.84752112  0.89485238    -0.39600
C2451       C  0.73233072  0.61397855  0.88652571    -0.11900
C2452       C  0.75936463  0.59838481  0.87814499     0.05100
C2453       C  0.78592764  0.61572422  0.87062237    -0.07200
C2454       C  0.78481131  0.64786461  0.87104491    -0.08000
C2455       C  0.75774698  0.66339584  0.87916833    -0.02500
C2456       C  0.73147455  0.64617277  0.88760443     0.04300
N2457       N  0.70425725  0.66095397  0.89864321     0.66800
H2458       H  0.71193108  0.60112836  0.89308196     0.15700
H2459       H  0.80523058  0.66072441  0.86453601     0.15400
N2460       N  0.81403300  0.60120726  0.86169356     0.74500
O2461       O  0.68000937  0.66092799  0.88262065    -0.38900
O2462       O  0.70452218  0.67432363  0.92433365    -0.38900
O2463       O  0.82002730  0.59793580  0.83352429    -0.39600
O2464       O  0.83501427  0.59702074  0.88138660    -0.39600
C2465       C  0.52768281  0.76177864  0.76483811    -0.11900
C2466       C  0.50666570  0.74299152  0.78072328     0.05100
C2467       C  0.98702760  0.72306391  0.76398966    -0.07200
C2468       C  0.98916006  0.72195663  0.73189051    -0.08000
C2469       C  0.50966560  0.74168675  0.71586292    -0.02500
C2470       C  0.52897878  0.76167419  0.73264762     0.04300
N2471       N  0.55050880  0.78144247  0.71738917     0.66800
H2472       H  0.54283764  0.77710186  0.77749836     0.15700
H2473       H  0.97410730  0.70647376  0.71930216     0.15400
N2474       N  0.96568566  0.70316426  0.77931506     0.74500
O2475       O  0.54356113  0.80926398  0.71246167    -0.38900
O2476       O  0.57811314  0.77291264  0.71442347    -0.38900
O2477       O  0.93745766  0.71003609  0.77966461    -0.39600
O2478       O  0.97397378  0.67634992  0.78702248    -0.39600
C2479       C  0.99928352  0.52895833  0.76664873    -0.11900
C2480       C  0.00356819  0.50001493  0.78027505     0.05100
C2481       C  0.50804910  0.97379307  0.76204346    -0.07200
C2482       C  0.50783691  0.97725250  0.73008407    -0.08000
C2483       C  0.50328262  0.50632236  0.71604136    -0.02500
C2484       C  0.99936497  0.53251837  0.73467247     0.04300
N2485       N  0.99463410  0.56255934  0.72193563     0.66800
H2486       H  0.99576826  0.54905534  0.78105397     0.15700
H2487       H  0.51109462  0.95684832  0.71610621     0.15400
N2488       N  0.51224985  0.94386044  0.77526032     0.74500
O2489       O  0.96755546  0.57246996  0.71829586    -0.38900
O2490       O  0.01700123  0.58107589  0.72013041    -0.38900
O2491       O  0.48967032  0.92560794  0.77696796    -0.39600
O2492       O  0.53914798  0.93373141  0.77957843    -0.39600
C2493       C  0.52558172  0.88850397  0.88291368    -0.11900
C2494       C  0.49895353  0.90377566  0.87264991     0.05100
C2495       C  0.97345082  0.88656570  0.86203402    -0.07200
C2496       C  0.97533191  0.85438816  0.86200841    -0.08000
C2497       C  0.00202526  0.83910177  0.87213110    -0.02500
C2498       C  0.52746370  0.85638084  0.88302416     0.04300
N2499       N  0.55461929  0.84219076  0.89513048     0.66800
H2500       H  0.54514966  0.90159346  0.89138154     0.15700
H2501       H  0.95570270  0.84127368  0.85372251     0.15400
N2502       N  0.94600849  0.90085763  0.85072933     0.74500
O2503       O  0.57822986  0.83995215  0.87841287    -0.38900
O2504       O  0.05713868  0.83824055  0.92309738    -0.38900
O2505       O  0.44237814  0.90356640  0.82236570    -0.39600
O2506       O  0.92339993  0.90444873  0.86854235    -0.39600
C2507       C  0.52513515  0.60376188  0.88711474    -0.11900
C2508       C  0.50112726  0.58886908  0.87144779     0.05100
C2509       C  0.97815311  0.60708336  0.85637938    -0.07200
C2510       C  0.97914903  0.63915434  0.85831328    -0.08000
C2511       C  0.00288425  0.65405255  0.87430586    -0.02500
C2512       C  0.52629733  0.63589523  0.88881603     0.04300
N2513       N  0.54994172  0.65002271  0.90678241     0.66800
H2514       H  0.54270897  0.59032236  0.89891282     0.15700
H2515       H  0.96156133  0.65256734  0.84650171     0.15400
N2516       N  0.95489088  0.59309958  0.83782212     0.74500
O2517       O  0.54463857  0.65676802  0.93445338    -0.38900
O2518       O  0.57726810  0.65053510  0.89695273    -0.38900
O2519       O  0.92754324  0.59185039  0.84752447    -0.39600
O2520       O  0.45973067  0.58808301  0.81027146    -0.39600
C2521       C  0.72255849  0.72436706  0.26795320    -0.11900
C2522       C  0.74137826  0.74513663  0.28409209     0.05100
C2523       C  0.75968450  0.76628665  0.26740620    -0.07200
C2524       C  0.75978505  0.76565564  0.23528542    -0.08000
C2525       C  0.74104939  0.74499745  0.21918950    -0.02500
C2526       C  0.72192312  0.72448165  0.23566169     0.04300
N2527       N  0.70256319  0.70305919  0.21990556     0.66800
H2528       H  0.70822393  0.70811939  0.28045772     0.15700
H2529       H  0.77434286  0.78174043  0.22280262     0.15400
N2530       N  0.77901095  0.78799969  0.28273997     0.74500
O2531       O  0.71425701  0.68044547  0.20607146    -0.38900
O2532       O  0.67402842  0.70811956  0.21770588    -0.38900
O2533       O  0.80743486  0.78258413  0.28544366    -0.39600
O2534       O  0.76902071  0.81475541  0.28792208    -0.39600
C2535       C  0.77734032  0.74369608  0.01978553    -0.11900
C2536       C  0.74988011  0.75240288  0.03449377     0.05100
C2537       C  0.72487008  0.76265136  0.01630866    -0.07200
C2538       C  0.72745630  0.76336621  0.98427963    -0.08000
C2539       C  0.75470496  0.75430546  0.96960100    -0.02500
C2540       C  0.77987924  0.74436958  0.98767103     0.04300
N2541       N  0.80768993  0.73367128  0.97378291     0.66800
H2542       H  0.79677518  0.73557763  0.03321879     0.15700
H2543       H  0.70803385  0.77151149  0.97082693     0.15400
N2544       N  0.69701346  0.77348357  0.02992234     0.74500
O2545       O  0.83161667  0.75019625  0.97431762    -0.38900
O2546       O  0.80830409  0.70778231  0.96074434    -0.38900
O2547       O  0.69413991  0.80177198  0.03578239    -0.39600
O2548       O  0.67359381  0.75624433  0.03051954    -0.39600
C2549       C  0.72785747  0.97286695  0.23506248    -0.11900
C2550       C  0.74243213  0.49740506  0.21901192     0.05100
C2551       C  0.75639142  0.52128499  0.23575718    -0.07200
C2552       C  0.75528275  0.52099288  0.26784453    -0.08000
C2553       C  0.74103610  0.99635925  0.28413558    -0.02500
C2554       C  0.72765022  0.97196607  0.26731925     0.04300
N2555       N  0.71354052  0.94632624  0.28252987     0.66800
H2556       H  0.71739702  0.95418871  0.22232534     0.15700
H2557       H  0.76605358  0.53971239  0.28026087     0.15400
N2558       N  0.77160071  0.54619113  0.22047341     0.74500
O2559       O  0.68508979  0.94697260  0.28835904    -0.38900
O2560       O  0.72800300  0.42152432  0.28467360    -0.38900
O2561       O  0.75667145  0.07070367  0.21573870    -0.39600
O2562       O  0.80060048  0.54607828  0.21865897    -0.39600
C2563       C  0.72957748  0.49559042  0.98307561    -0.11900
C2564       C  0.75818455  0.50185600  0.96922816     0.05100
C2565       C  0.78298074  0.00675788  0.98845828    -0.07200
C2566       C  0.77982015  0.00513596  0.02052477    -0.08000
C2567       C  0.75206265  0.49892748  0.03417758    -0.02500
C2568       C  0.72625702  0.49417575  0.01499515     0.04300
N2569       N  0.69649811  0.48748156  0.02736627     0.66800
H2570       H  0.70927266  0.49169628  0.96899300     0.15700
H2571       H  0.80002304  0.00923543  0.03469232     0.15400
N2572       N  0.81243124  0.01420366  0.97580666     0.74500
O2573       O  0.67747502  0.50909978  0.03103862    -0.38900
O2574       O  0.68711433  0.45996289  0.02812161    -0.38900
O2575       O  0.82062026  0.04205374  0.97383643    -0.39600
O2576       O  0.83227128  0.99324707  0.97264273    -0.39600
C2577       C  0.71973396  0.85574898  0.11799116    -0.11900
C2578       C  0.74554860  0.83998072  0.12934320     0.05100
C2579       C  0.77119657  0.85697242  0.13981115    -0.07200
C2580       C  0.77072361  0.88911093  0.13831420    -0.08000
C2581       C  0.74494558  0.90492515  0.12684584    -0.02500
C2582       C  0.71919933  0.88787121  0.11656314     0.04300
N2583       N  0.69279414  0.90263006  0.10351386     0.66800
H2584       H  0.69993964  0.84303506  0.10944659     0.15700
H2585       H  0.79055221  0.90178656  0.14681947     0.15400
N2586       N  0.79738603  0.84206626  0.15313791     0.74500
O2587       O  0.69171384  0.90732298  0.07487503    -0.38900
O2588       O  0.66846788  0.90482005  0.11918770    -0.38900
O2589       O  0.82215328  0.84040609  0.13809697    -0.39600
O2590       O  0.79741150  0.83558291  0.18146470    -0.39600
C2591       C  0.71933251  0.60554977  0.11878695    -0.11900
C2592       C  0.74657726  0.59009811  0.12707990     0.05100
C2593       C  0.77285932  0.60760799  0.13486195    -0.07200
C2594       C  0.77154671  0.63971844  0.13390495    -0.08000
C2595       C  0.74449365  0.65515774  0.12524552    -0.02500
C2596       C  0.71811123  0.63772682  0.11762221     0.04300
N2597       N  0.69011304  0.65221079  0.10801666     0.66800
H2598       H  0.69890855  0.59261477  0.11257246     0.15700
H2599       H  0.79193566  0.65261486  0.14031796     0.15400
N2600       N  0.80088168  0.59337308  0.14466730     0.74500
O2601       O  0.68744356  0.66239257  0.08089702    -0.38900
O2602       O  0.66773761  0.65413087  0.12638838    -0.38900
O2603       O  0.82197348  0.58888155  0.12528928    -0.39600
O2604       O  0.80740576  0.59284179  0.17292962    -0.39600
C2605       C  0.97417254  0.73159130  0.26445965    -0.11900
C2606       C  0.49354263  0.74960774  0.28051127     0.05100
C2607       C  0.51342613  0.76955183  0.26420530    -0.07200
C2608       C  0.51353522  0.76935365  0.23206297    -0.08000
C2609       C  0.49350125  0.75016692  0.21564824    -0.02500
C2610       C  0.97348052  0.73198193  0.23225071     0.04300
N2611       N  0.95238232  0.71221436  0.21660188     0.66800
H2612       H  0.95839171  0.71658525  0.27688734     0.15700
H2613       H  0.52926378  0.78456082  0.21980673     0.15400
N2614       N  0.53449136  0.78926050  0.27995793     0.74500
O2615       O  0.96068826  0.68540767  0.20924566    -0.38900
O2616       O  0.92425988  0.71938832  0.21513697    -0.38900
O2617       O  0.56204745  0.78081925  0.28372730    -0.39600
O2618       O  0.52722040  0.81693955  0.28482552    -0.39600
C2619       C  0.97328709  0.74604088  0.01465966    -0.11900
C2620       C  0.50109814  0.75166333  0.03080260     0.05100
C2621       C  0.52883731  0.75474243  0.01406355    -0.07200
C2622       C  0.52839965  0.75297953  0.98194423    -0.08000
C2623       C  0.50079931  0.74813941  0.96573943    -0.02500
C2624       C  0.97284686  0.74415343  0.98258029     0.04300
N2625       N  0.94441169  0.73688718  0.96770209     0.66800
H2626       H  0.95187142  0.74237539  0.02705581     0.15700
H2627       H  0.54997652  0.75573725  0.96960246     0.15400
N2628       N  0.55760544  0.76013995  0.02912651     0.74500
O2629       O  0.93783662  0.70910662  0.96232505    -0.38900
O2630       O  0.92370497  0.75715890  0.96549625    -0.38900
O2631       O  0.57661337  0.73834547  0.03209241    -0.39600
O2632       O  0.56632400  0.78744417  0.03389359    -0.39600
C2633       C  0.46731558  0.49703374  0.23114745    -0.11900
C2634       C  0.99555514  0.00085450  0.21569747     0.05100
C2635       C  0.02252960  0.00555521  0.23343910    -0.07200
C2636       C  0.02080123  0.00580845  0.26557956    -0.08000
C2637       C  0.99275652  0.00111300  0.28065464    -0.02500
C2638       C  0.46577755  0.49716158  0.26333424     0.04300
N2639       N  0.43656527  0.49384794  0.27811491     0.66800
H2640       H  0.44612270  0.49411811  0.21818613     0.15700
H2641       H  0.04164102  0.00956127  0.27892729     0.15400
N2642       N  0.05182537  0.01049524  0.21932564     0.74500
O2643       O  0.42067402  0.51746435  0.28375346    -0.38900
O2644       O  0.42446898  0.46749995  0.28057581    -0.38900
O2645       O  0.06213468  0.03756248  0.21655066    -0.39600
O2646       O  0.06964660  0.98793800  0.21531038    -0.39600
C2647       C  0.96957270  0.99458953  0.01428871    -0.11900
C2648       C  0.99646762  0.00348094  0.02996141     0.05100
C2649       C  0.52303522  0.51071572  0.01264492    -0.07200
C2650       C  0.52243476  0.50826922  0.98059810    -0.08000
C2651       C  0.99565482  0.99919878  0.96489520    -0.02500
C2652       C  0.96893427  0.99231840  0.98215370     0.04300
N2653       N  0.94134193  0.98181192  0.96763216     0.66800
H2654       H  0.94894358  0.98855803  0.02711246     0.15700
H2655       H  0.54309928  0.51429834  0.96782916     0.15400
N2656       N  0.55052897  0.52165496  0.02703571     0.74500
O2657       O  0.93767086  0.95340249  0.96281216    -0.38900
O2658       O  0.91869625  0.99982596  0.96491343    -0.38900
O2659       O  0.57354115  0.50406917  0.02943005    -0.39600
O2660       O  0.55371317  0.55010816  0.03194152    -0.39600
C2661       C  0.96920979  0.86011427  0.12098977    -0.11900
C2662       C  0.99763474  0.84472132  0.12223430     0.05100
C2663       C  0.52504379  0.86207736  0.12257786    -0.07200
C2664       C  0.52354797  0.89417358  0.12200786    -0.08000
C2665       C  0.49518382  0.90964875  0.12122292    -0.02500
C2666       C  0.96765606  0.89224935  0.12004147     0.04300
N2667       N  0.93806202  0.90648203  0.11779785     0.66800
H2668       H  0.94779661  0.84713785  0.12049626     0.15700
H2669       H  0.54502249  0.90705455  0.12233312     0.15400
N2670       N  0.55470289  0.84784629  0.12307330     0.74500
O2671       O  0.92673060  0.91202209  0.09160566    -0.38900
O2672       O  0.92096339  0.90755124  0.14120201    -0.38900
O2673       O  0.56968736  0.84541313  0.09836818    -0.39600
O2674       O  0.56826734  0.84370589  0.14843988    -0.39600
C2675       C  0.52308485  0.64375608  0.13268981    -0.11900
C2676       C  0.99676661  0.65970353  0.12284765     0.05100
C2677       C  0.97065497  0.64270286  0.11347986    -0.07200
C2678       C  0.97145186  0.61059350  0.11418432    -0.08000
C2679       C  0.49793252  0.59458227  0.12393707    -0.02500
C2680       C  0.52397320  0.61161531  0.13338395     0.04300
N2681       N  0.55115664  0.59677873  0.14461164     0.66800
H2682       H  0.54323174  0.65643840  0.14040376     0.15700
H2683       H  0.95119276  0.59797995  0.10664726     0.15400
N2684       N  0.94345736  0.65753541  0.10227424     0.74500
O2685       O  0.57365851  0.59282490  0.12674018    -0.38900
O2686       O  0.55498166  0.59353802  0.17321409    -0.38900
O2687       O  0.93999991  0.66158465  0.07371953    -0.39600
O2688       O  0.92074914  0.66101004  0.11998700    -0.39600
loop_ 
_geom_bond_atom_site_label_1 
_geom_bond_atom_site_label_2 
_geom_bond_distance 
_geom_bond_site_symmetry_2 
_ccdc_geom_bond_type 
O1          V681   1.901       .  S
O1         C2027   1.265   1_455  A
O2            V9   1.901       .  S
O2         C1356   1.265   1_455  A
O3            V9   1.889       .  S
O3           C13   1.264   1_455  A
O4          V681   1.890       .  S
O4           C14   1.261   1_455  A
O5          V682   1.891       .  S
O5         C1358   1.264       .  A
O6           V10   1.895       .  S
O6         C1357   1.263       .  A
O7          V682   1.901       .  S
O7          C684   1.266       .  A
O8           V10   1.900       .  S
O8           C11   1.265       .  A
V9          O673   1.901       .  S
V9          O676   1.890       .  S
V9         V1354   2.085   1_455  T
V10         O677   1.891       .  S
V10         O679   1.901       .  S
V10        V1353   2.085       .  T
C11        O2017   1.265       .  A
C11         C632   1.486       .  S
C12        O1346   1.265       .  A
C12         O679   1.266       .  A
C12         C618   1.489       .  S
C13        O1350   1.263       .  A
C13         C649   1.479       .  S
C14        O1349   1.264       .  A
C14         C663   1.474       .  S
O15          V23   1.901       .  S
O15        C1369   1.264       .  A
O16          V23   1.896       .  S
O16        C1370   1.265       .  A
O17          V23   1.888       .  S
O17          C27   1.262       .  A
O18          V23   1.892       .  S
O18          C28   1.264       .  A
O19          V24   1.893       .  S
O19        C1372   1.263   1_455  A
O20          V24   1.894       .  S
O20        C1371   1.265   1_455  A
O21          V24   1.899       .  S
O21          C26   1.264   1_455  A
O22          V24   1.898       .  S
O22          C25   1.264   1_455  A
V23        V1368   2.085       .  T
V24        V1367   2.085   1_455  T
C25        O1359   1.264       .  A
C25         C593   1.476       .  S
C26        O1360   1.265       .  A
C26         C604   1.484   1_655  S
C27        O1364   1.264       .  A
C27         C660   1.474       .  S
C28        O1363   1.263       .  A
C28         C646   1.479       .  S
O29          V37   1.889       .  S
O29          C39   1.261       .  A
O30         V709   1.892   1_545  S
O30          C40   1.264       .  A
O31          V37   1.903       .  S
O31         C713   1.266       .  A
O32         V709   1.904       .  S
O32          C42   1.265       .  A
O33         V710   1.895       .  S
O33         C714   1.262       .  A
O34          V38   1.897       .  S
O34          C41   1.264       .  A
O35          V38   1.895   1_545  S
O35          C40   1.264       .  A
O36         V710   1.897       .  S
O36          C39   1.266       .  A
V37         O702   1.892       .  S
V37         O704   1.904       .  S
V37         V710   2.086       .  T
V38         O705   1.895       .  S
V38         O708   1.897       .  S
V38         V709   2.086       .  T
C39         C565   1.477       .  S
C40         C576   1.478       .  S
C41         O703   1.266       .  A
C41         C551   1.487       .  S
C42         O705   1.262       .  A
C42         C534   1.470       .  S
O43          V51   1.900       .  S
O43          C53   1.264       .  A
O44          V51   1.898       .  S
O44          C54   1.264       .  A
O45          V51   1.891       .  S
O45          C55   1.262       .  A
O46          V51   1.893       .  S
O46          C56   1.264       .  A
O47          V52   1.890       .  S
O47          C56   1.262       .  A
O48          V52   1.890       .  S
O48          C55   1.264       .  A
O49          V52   1.899       .  S
O49          C54   1.265       .  A
O50          V52   1.895       .  S
O50          C53   1.264       .  A
V51          V52   2.086       .  T
C53         C509   1.472       .  S
C54         C520   1.487       .  S
C55         C579   1.476       .  S
C56         C562   1.474       .  S
O57         V737   1.897       .  S
O57        C2083   1.262       .  A
O58          V65   1.895       .  S
O58        C1412   1.265   1_455  A
O59          V65   1.890       .  S
O59          C69   1.263   1_455  A
O60         V737   1.892   1_545  S
O60          C70   1.263       .  A
O61         V738   1.898   1_545  S
O61        C1414   1.264       .  A
O62          V66   1.901       .  S
O62        C1413   1.265       .  A
O63         V738   1.904       .  S
O63         C740   1.265       .  A
O64          V66   1.896       .  S
O64          C67   1.263       .  A
V65         O729   1.897       .  S
V65         O732   1.892       .  S
V65        V1410   2.087   1_455  T
V66         O733   1.898       .  S
V66         O735   1.904       .  S
V66        V1409   2.087       .  T
C67        O2073   1.262       .  A
C67        C1136   1.462       .  S
C68        O1402   1.265       .  A
C68         O735   1.265       .  A
C68         C635   1.485       .  S
C69        O1406   1.264       .  A
C69         C478   1.479       .  S
C70        O1405   1.264   1_455  A
C70         C492   1.472       .  S
O71          V79   1.899       .  S
O71        C1425   1.265       .  A
O72          V79   1.900       .  S
O72        C1426   1.264       .  A
O73          V79   1.888       .  S
O73          C83   1.262       .  A
O74          V79   1.894       .  S
O74          C84   1.264       .  A
O75          V80   1.897       .  S
O75        C1428   1.264       .  A
O76          V80   1.899       .  S
O76        C1427   1.264       .  A
O77          V80   1.901       .  S
O77          C82   1.265       .  A
O78          V80   1.895       .  S
O78          C81   1.264       .  A
V79        V1424   2.086       .  T
V80        V1423   2.086   1_455  T
C81        O1415   1.265   1_455  A
C81         C607   1.484       .  S
C82        O1416   1.264   1_455  A
C82         C450   1.477       .  S
C83        O1420   1.264       .  A
C83         C495   1.471       .  S
C84        O1419   1.264       .  A
C84         C481   1.479       .  S
O85          V93   1.894       .  S
O85          C95   1.264       .  A
O86         V765   1.899       .  S
O86          C96   1.265       .  A
O87          V93   1.888       .  S
O87         C769   1.261       .  A
O88         V765   1.885       .  S
O88          C98   1.262       .  A
O89         V766   1.915       .  S
O89         C770   1.268       .  A
O90          V94   1.910       .  S
O90          C97   1.268       .  A
O91          V94   1.890       .  S
O91          C96   1.262       .  A
O92         V766   1.893       .  S
O92          C95   1.262       .  A
V93         O758   1.899       .  S
V93         O760   1.885       .  S
V93         V766   2.085       .  T
V94         O761   1.915       .  S
V94         O764   1.893   1_545  S
V94         V765   2.085       .  T
C95         C425   1.472       .  S
C96         C436   1.482       .  S
C97         O759   1.261       .  A
C97        C1080   1.480       .  S
C98         O761   1.268       .  A
C98         C548   1.487       .  S
O99         V107   1.892       .  S
O99         C109   1.264       .  A
O100        V107   1.898       .  S
O100        C110   1.264       .  A
O101        V107   1.894       .  S
O101        C111   1.264       .  A
O102        V107   1.892       .  S
O102        C112   1.263       .  A
O103        V108   1.894       .  S
O103        C112   1.264       .  A
O104        V108   1.890       .  S
O104        C111   1.263       .  A
O105        V108   1.899       .  S
O105        C110   1.265       .  A
O106        V108   1.899       .  S
O106        C109   1.264       .  A
V107        V108   2.084       .  T
C109        C523   1.484       .  S
C110        C394   1.474       .  S
C111        C439   1.479       .  S
C112        C422   1.472       .  S
O113       V1465   1.894       .  S
O113       C2139   1.264       .  A
O114        V121   1.898       .  S
O114        C796   1.263       .  A
O115        V121   1.902       .  S
O115        C125   1.265       .  A
O116       V1465   1.899   1_455  S
O116        C126   1.266       .  A
O117       V1466   1.895   1_455  S
O117        C798   1.262       .  A
O118        V122   1.888       .  S
O118        C797   1.262       .  A
O119       V1466   1.903       .  S
O119       C1468   1.264       .  A
O120        V122   1.904       .  S
O120        C123   1.266       .  A
V121       O1457   1.894       .  S
V121       O1460   1.900       .  S
V121        V794   2.087   1_545  T
V122       O1461   1.895       .  S
V122       O1463   1.902       .  S
V122        V793   2.087       .  T
C123       O2129   1.264       .  A
C123        C355   1.488       .  S
C124        O786   1.263       .  A
C124       O1463   1.264       .  A
C124        C621   1.468       .  S
C125        O790   1.262   1_545  A
C125        C369   1.471       .  S
C126        O789   1.262   1_545  A
C126        C380   1.482       .  S
O127       V1479   1.902       .  S
O127       C1481   1.266       .  A
O128        V135   1.901       .  S
O128        C138   1.265       .  A
O129        V135   1.890   1_455  S
O129        C139   1.262       .  A
O130       V1479   1.890       .  S
O130        C140   1.264       .  A
O131       V1480   1.899       .  S
O131        C140   1.264       .  A
O132        V136   1.893   1_455  S
O132        C139   1.263       .  A
O133       V1480   1.897       .  S
O133       C1482   1.263       .  A
O134        V136   1.899       .  S
O134        C137   1.265       .  A
V135       O1471   1.900       .  S
V135       O1474   1.889       .  S
V135        V136   2.086       .  T
V136       O1475   1.900       .  S
V136       O1477   1.899       .  S
C137       O1471   1.265       .  A
C137        C310   1.488       .  S
C138       O1477   1.264       .  A
C138        C590   1.474       .  S
C139        C341   1.468       .  S
C140        C324   1.482       .  S
O141        V149   1.901       .  S
O141        C823   1.266       .  A
O142        V149   1.904       .  S
O142        C824   1.266       .  A
O143        V149   1.902       .  S
O143        C153   1.265       .  A
O144        V149   1.899       .  S
O144        C154   1.263       .  A
O145        V150   1.898       .  S
O145        C826   1.266   1_545  A
O146        V150   1.898       .  S
O146        C825   1.265       .  A
O147        V150   1.890       .  S
O147        C152   1.262       .  A
O148        V150   1.891       .  S
O148        C151   1.262       .  A
V149        V822   2.085       .  T
V150        V821   2.085   1_545  T
C151        O813   1.266   1_545  A
C151        C383   1.480       .  S
C152        O814   1.266   1_545  A
C152        C366   1.474       .  S
C153        O818   1.265       .  A
C153        C296   1.488       .  S
C154        O817   1.266       .  A
C154        C537   1.479       .  S
O155        V163   1.895       .  S
O155        C165   1.263       .  A
O156        V163   1.898       .  S
O156        C166   1.264       .  A
O157        V163   1.906       .  S
O157        C167   1.267       .  A
O158        V163   1.905       .  S
O158        C168   1.265       .  A
O159        V164   1.896       .  S
O159        C168   1.263       .  A
O160        V164   1.901       .  S
O160        C167   1.265       .  A
O161        V164   1.891       .  S
O161        C166   1.264       .  A
O162        V164   1.893       .  S
O162        C165   1.263       .  A
V163        V164   2.084       .  T
C165        C338   1.473       .  S
C166        C327   1.482       .  S
C167        C285   1.492       .  S
C168        C506   1.476       .  S
O169       V1521   1.885       .  S
O169       C2195   1.262       .  A
O170        V177   1.889       .  S
O170        C852   1.263       .  A
O171        V177   1.898   1_455  S
O171        C181   1.266       .  A
O172       V1521   1.899       .  S
O172        C182   1.264       .  A
O173       V1522   1.890       .  S
O173        C854   1.263       .  A
O174        V178   1.891   1_455  S
O174        C853   1.262       .  A
O175       V1522   1.909       .  S
O175       C1524   1.267       .  A
O176        V178   1.907   1_455  S
O176        C179   1.267       .  A
V177       O1513   1.885   1_655  S
V177       O1516   1.899       .  S
V177        V850   2.085       .  T
V178       O1517   1.890       .  S
V178       O1519   1.909       .  S
V178        V849   2.085   1_545  T
C179       O2185   1.262   1_545  A
C179        C467   1.483       .  S
C180        O842   1.263   1_545  A
C180       O1519   1.267       .  A
C180        C352   1.487       .  S
C181        O846   1.262       .  A
C181        C268   1.480       .  S
C182        O845   1.263       .  A
C182        C254   1.473       .  S
O183       V1535   1.906       .  S
O183       C1537   1.265       .  A
O184        V191   1.905       .  S
O184        C194   1.266       .  A
O185        V191   1.897       .  S
O185        C195   1.264       .  A
O186       V1535   1.901       .  S
O186        C196   1.265       .  A
O187       V1536   1.891       .  S
O187        C196   1.263       .  A
O188        V192   1.895       .  S
O188        C195   1.264       .  A
O189       V1536   1.896       .  S
O189       C1538   1.262       .  A
O190        V192   1.895       .  S
O190        C193   1.265       .  A
V191       O1527   1.905       .  S
V191       O1530   1.901       .  S
V191        V192   2.086       .  T
V192       O1531   1.891       .  S
V192       O1533   1.897       .  S
C193       O1527   1.265       .  A
C193       C1657   1.488       .  S
C194       O1533   1.263       .  A
C194       C1797   1.477       .  S
C195        C226   1.478       .  S
C196        C240   1.476       .  S
O197        V205   1.895       .  S
O197        C879   1.263       .  A
O198        V205   1.893       .  S
O198        C880   1.264       .  A
O199        V205   1.894       .  S
O199        C209   1.263       .  A
O200        V205   1.896       .  S
O200        C210   1.265       .  A
O201        V206   1.903       .  S
O201        C882   1.265       .  A
O202        V206   1.905       .  S
O202        C881   1.265       .  A
O203        V206   1.893       .  S
O203        C208   1.263       .  A
O204        V206   1.897       .  S
O204        C207   1.266       .  A
V205        V878   2.085       .  T
V206        V877   2.085   1_545  T
C207        O869   1.263   1_545  A
C207        C271   1.481       .  S
C208        O870   1.264   1_545  A
C208        C257   1.474       .  S
C209        O874   1.265       .  A
C209        C411   1.471       .  S
C210        O873   1.265       .  A
C210        C299   1.488       .  S
O211        V219   1.909       .  S
O211        C221   1.267       .  A
O212        V219   1.907       .  S
O212        C222   1.266       .  A
O213        V219   1.892       .  S
O213        C223   1.263       .  A
O214        V219   1.889       .  S
O214        C224   1.263       .  A
O215        V220   1.903       .  S
O215        C224   1.265       .  A
O216        V220   1.900       .  S
O216        C223   1.265       .  A
O217        V220   1.891       .  S
O217        C222   1.262       .  A
O218        V220   1.897       .  S
O218        C221   1.265       .  A
V219        V220   2.085       .  T
C221        C282   1.492       .  S
C222        C397   1.474       .  S
C223        C243   1.475       .  S
C224        C229   1.478       .  S
C225        C226   1.404       .  A
C225        C230   1.399       .  A
C225        H232   1.087       .  S
C226        C227   1.412       .  A
C227        C228   1.397       .  A
C227        N234   1.429       .  S
C228        C229   1.404       .  A
C228        H233   1.087       .  S
C229        C230   1.411       .  A
C230        N231   1.429       .  S
N231        O235   1.262       .  A
N231        O236   1.262       .  A
N234        O238   1.262       .  A
N234        O237   1.262       .  A
C239        C240   1.404       .  A
C239        C244   1.398       .  A
C239        H246   1.087       .  S
C240        C241   1.411       .  A
C241        C242   1.398       .  A
C241        N248   1.429       .  S
C242        C243   1.404       .  A
C242        H247   1.087       .  S
C243        C244   1.410       .  A
C244        N245   1.429       .  S
N245        O249   1.262       .  A
N245        O250   1.262       .  A
N248        O252   1.262       .  A
N248        O251   1.262       .  A
C253        C258   1.396       .  A
C253        C926   1.403       .  A
C253        H260   1.087       .  S
C254        C255   1.410       .  A
C254        C925   1.403       .  A
C255        C256   1.397       .  A
C255        N262   1.429       .  S
C256        C929   1.403       .  A
C256        H261   1.087       .  S
C257        C258   1.412       .  A
C257        C928   1.403   1_545  A
C258        N259   1.429       .  S
N259        O263   1.262       .  A
N259        O264   1.262       .  A
N262        O266   1.262       .  A
N262        O265   1.262       .  A
C267        C268   1.404       .  A
C267        C272   1.398       .  A
C267        H274   1.087       .  S
C268        C941   1.414       .  A
C269        C270   1.397       .  A
C269        C940   1.414       .  A
C269        N276   1.429       .  S
C270        C271   1.404       .  A
C270        H275   1.087       .  S
C271        C944   1.414   1_545  A
C272        C943   1.414       .  A
C272        N273   1.429       .  S
N273        O277   1.262       .  A
N273        O278   1.262       .  A
N276        O280   1.262       .  A
N276        O279   1.262       .  A
C281        C282   1.406       .  A
C281        C286   1.400       .  A
C281        H288   1.086       .  S
C282        C283   1.415       .  A
C283        C284   1.404       .  A
C283        N290   1.429       .  S
C284        C285   1.407       .  A
C284        H289   1.086       .  S
C285        C286   1.415       .  A
C286        N287   1.429       .  S
N287        O291   1.262       .  A
N287        O292   1.262       .  A
N290        O294   1.262       .  A
N290        O293   1.262       .  A
C295        C300   1.401       .  A
C295        C968   1.406       .  A
C295        H302   1.086       .  S
C296        C297   1.414       .  A
C296        C967   1.406       .  A
C297        C298   1.399       .  A
C297        N304   1.429       .  S
C298        C299   1.406       .  A
C298        H303   1.086       .  S
C299        C972   1.414       .  A
C300        C971   1.414       .  A
C300        N301   1.429       .  S
N301        O305   1.262       .  A
N301        O306   1.262       .  A
N304        O980   1.262       .  A
N304        O307   1.262       .  A
O308        N976   1.262       .  A
C309        C314   1.403       .  A
C309       C1654   1.407       .  A
C309        H316   1.086       .  S
C310        C311   1.414   1_655  A
C310       C1653   1.407       .  A
C311        C312   1.397       .  A
C311        N318   1.429       .  S
C312        C313   1.405       .  A
C312        H317   1.086       .  S
C313       C1537   1.488       .  S
C313       C1658   1.414       .  A
C314       C1657   1.415       .  A
C314        N315   1.429       .  S
N315        O319   1.262       .  A
N315        O320   1.262       .  A
N318        O322   1.262       .  A
N318        O321   1.262   1_455  A
C323        C324   1.405       .  A
C323        C328   1.397       .  A
C323        H330   1.086       .  S
C324        C325   1.413       .  A
C325        C326   1.398       .  A
C325        N332   1.429       .  S
C326        C327   1.405       .  A
C326        H331   1.086       .  S
C327        C328   1.413       .  A
C328        N329   1.429       .  S
N329        O333   1.262       .  A
N329        O334   1.262       .  A
N332        O336   1.262       .  A
N332        O335   1.262       .  A
C337        C338   1.404       .  A
C337        C342   1.399       .  A
C337        H344   1.084       .  S
C338        C339   1.412       .  A
C339        C340   1.396       .  A
C339        N346   1.429       .  S
C340        C341   1.400       .  A
C340        H345   1.084       .  S
C341        C342   1.410       .  A
C342        N343   1.431       .  S
N343        O347   1.262       .  A
N343        O348   1.262       .  A
N346        O350   1.262       .  A
N346        O349   1.262       .  A
C351        C356   1.398       .  A
C351       C1024   1.407       .  A
C351        H358   1.086       .  S
C352       C1023   1.407   1_545  A
C352       C1697   1.413       .  A
C353        C354   1.402       .  A
C353       C1696   1.413       .  A
C353        N360   1.429       .  S
C354       C1027   1.408       .  A
C354        H359   1.086       .  S
C355       C1026   1.408       .  A
C355       C1700   1.412       .  A
C356       C1699   1.412       .  A
C356        N357   1.429       .  S
N357        O361   1.262   1_655  A
N357       O1706   1.262       .  A
N360        O364   1.262       .  A
N360       O1707   1.262       .  A
O362       N1701   1.262       .  A
O363       N1704   1.262       .  A
C365        C366   1.404       .  A
C365        C370   1.398       .  A
C365        H372   1.087       .  S
C366       C1039   1.409   1_545  A
C367        C368   1.397       .  A
C367       C1038   1.409       .  A
C367        N374   1.429       .  S
C368       C1041   1.403       .  A
C368        H373   1.087       .  S
C369        C370   1.409       .  A
C369       C1040   1.403   1_545  A
C370        N371   1.429       .  S
N371        O375   1.262       .  A
N371        O376   1.262       .  A
N374        O378   1.262       .  A
N374        O377   1.262       .  A
C379        C380   1.403       .  A
C379        C384   1.397       .  A
C379        H386   1.084       .  S
C380       C1053   1.415   1_545  A
C381        C382   1.399       .  A
C381       C1052   1.414       .  A
C381        N388   1.429       .  S
C382       C1055   1.403       .  A
C382        H387   1.084       .  S
C383        C384   1.413       .  A
C383       C1054   1.403   1_545  A
C384        N385   1.429       .  S
N385       O1061   1.262       .  A
N385        O390   1.262       .  A
N388       O1064   1.262       .  A
N388        O391   1.262       .  A
O389       N1057   1.262       .  A
O392       N1060   1.262       .  A
C393        C394   1.404       .  A
C393        C398   1.401       .  A
C393        H400   1.087       .  S
C394        C395   1.410       .  A
C395        C396   1.398       .  A
C395        N402   1.429       .  S
C396        C397   1.403       .  A
C396        H401   1.087       .  S
C397        C398   1.409       .  A
C398        N399   1.429       .  S
N399        O403   1.262       .  A
N399        O404   1.262       .  A
N402        O406   1.262       .  A
N402        O405   1.262       .  A
C407        C412   1.403       .  A
C407       C1080   1.404       .  A
C407        H414   1.086       .  S
C408        C769   1.480       .  S
C408        C409   1.415       .  A
C408       C1079   1.404       .  A
C409        C410   1.397       .  A
C409        N416   1.429       .  S
C410        C411   1.398       .  A
C410        H415   1.087       .  S
C411       C1084   1.409       .  A
C412       C1083   1.409       .  A
C412        N413   1.429       .  S
N413        O417   1.262       .  A
N413        O418   1.262       .  A
N416        O420   1.262       .  A
N416        O419   1.262       .  A
C421        C422   1.402       .  A
C421        C426   1.398       .  A
C421        H428   1.087       .  S
C422        C423   1.410       .  A
C423        C424   1.395       .  A
C423        N430   1.429       .  S
C424        C425   1.402       .  A
C424        H429   1.087       .  S
C425        C426   1.412       .  A
C426        N427   1.429       .  S
N427        O431   1.262       .  A
N427        O432   1.262       .  A
N430        O434   1.262       .  A
N430        O433   1.262       .  A
C435        C436   1.406       .  A
C435        C440   1.399       .  A
C435        H442   1.083       .  S
C436        C437   1.415       .  A
C437        C438   1.396       .  A
C437        N444   1.429       .  S
C438        C439   1.403       .  A
C438        H443   1.084       .  S
C439        C440   1.412       .  A
C440        N441   1.430       .  S
N441        O445   1.262       .  A
N441        O446   1.262       .  A
N444        O448   1.262       .  A
N444        O447   1.262       .  A
C449        C450   1.402       .  A
C449        C454   1.401       .  A
C449        H456   1.087       .  S
C450       C1795   1.411   1_455  A
C451        C452   1.400       .  A
C451       C1794   1.411       .  A
C451        N458   1.429       .  S
C452       C1797   1.402       .  A
C452        H457   1.087       .  S
C453       C1538   1.476       .  S
C453        C454   1.412       .  A
C453       C1796   1.401   1_455  A
C454        N455   1.429       .  S
N455        O459   1.262       .  A
N455        O460   1.262       .  A
N458        O462   1.262       .  A
N458        O461   1.262       .  A
C463        C464   1.398   1_545  A
C463        C468   1.399       .  A
C463        H470   1.088       .  S
C464        C739   1.462       .  S
C464       C2481   1.402       .  A
C465        C466   1.397       .  A
C465       C2480   1.402       .  A
C465        N472   1.429       .  S
C466       C1139   1.409       .  A
C466        H471   1.087       .  S
C467       C1138   1.409   1_545  A
C467       C1812   1.414   1_455  A
C468       C1811   1.414       .  A
C468        N469   1.428       .  S
N469        O473   1.262       .  A
N469        O474   1.262       .  A
N472        O476   1.262       .  A
N472        O475   1.261   1_455  A
C477        C478   1.404   1_455  A
C477        C482   1.396       .  A
C477        H484   1.087       .  S
C478       C1823   1.412       .  A
C479        C480   1.399       .  A
C479       C1822   1.412       .  A
C479        N486   1.429       .  S
C480        C481   1.405       .  A
C480        H485   1.087       .  S
C481       C1826   1.412       .  A
C482       C1825   1.412       .  A
C482        N483   1.429       .  S
N483        O487   1.262       .  A
N483       O1832   1.262       .  A
N486        O490   1.262       .  A
N486       O1833   1.262       .  A
O488       N1827   1.262       .  A
O489       N1830   1.262       .  A
C491        C492   1.404       .  A
C491        C496   1.398       .  A
C491        H498   1.087       .  S
C492       C1837   1.410   1_455  A
C493        C494   1.396       .  A
C493       C1836   1.410       .  A
C493        N500   1.429       .  S
C494        C495   1.402       .  A
C494        H499   1.087       .  S
C495       C1840   1.409       .  A
C496       C1839   1.409       .  A
C496        N497   1.429       .  S
N497        O501   1.262       .  A
N497        O502   1.262       .  A
N500       O1848   1.262       .  A
N500        O503   1.262       .  A
O504       N1844   1.262       .  A
C505        C506   1.405       .  A
C505        C510   1.404       .  A
C505        H512   1.084       .  S
C506        C507   1.410       .  A
C507        C508   1.397       .  A
C507        N514   1.429       .  S
C508        C509   1.400       .  A
C508        H513   1.085       .  S
C509        C510   1.410       .  A
C510        N511   1.430       .  S
N511        O515   1.262       .  A
N511        O516   1.262       .  A
N514        O518   1.262       .  A
N514        O517   1.262       .  A
C519        C520   1.407       .  A
C519        C524   1.401   1_554  A
C519        H526   1.084       .  S
C520        C521   1.414       .  A
C521        C522   1.397   1_554  A
C521        N528   1.429       .  S
C522        C523   1.404       .  A
C522        H527   1.084       .  S
C523        C524   1.413       .  A
C524        N525   1.429       .  S
N525        O529   1.262       .  A
N525        O530   1.262       .  A
N528        O532   1.262       .  A
N528        O531   1.262       .  A
C533        C538   1.403       .  A
C533       C1206   1.401       .  A
C533        H540   1.084       .  S
C534        C535   1.407   1_565  A
C534       C1205   1.401       .  A
C535        C536   1.397       .  A
C535        N542   1.427       .  S
C536       C1209   1.403   1_545  A
C536        H541   1.084       .  S
C537        C538   1.414       .  A
C537       C1208   1.403       .  A
C538        N539   1.429       .  S
N539        O543   1.262       .  A
N539       O1216   1.262       .  A
N542        O546   1.262       .  A
N542       O1217   1.262       .  A
O544       N1211   1.262       .  A
O545       N1214   1.262       .  A
C547        C548   1.407   1_565  A
C547        C552   1.397   1_556  A
C547        H554   1.086       .  S
C548       C1221   1.412       .  A
C549        C550   1.403   1_556  A
C549       C1220   1.412       .  A
C549        N556   1.429       .  S
C550       C1223   1.408       .  A
C550        H555   1.086       .  S
C551        C552   1.412       .  A
C551       C1222   1.408   1_565  A
C552        N553   1.429       .  S
N553        O557   1.262   1_565  A
N553        O558   1.262       .  A
N556        O560   1.262       .  A
N556        O559   1.262       .  A
C561        C562   1.401       .  A
C561        C566   1.395       .  A
C561        H568   1.087       .  S
C562        C563   1.412       .  A
C563        C564   1.397       .  A
C563        N570   1.429       .  S
C564        C565   1.403       .  A
C564        H569   1.087       .  S
C565        C566   1.414       .  A
C566        N567   1.429       .  S
N567        O571   1.262       .  A
N567        O572   1.262       .  A
N570        O574   1.262       .  A
N570        O573   1.262       .  A
C575        C576   1.406       .  A
C575        C580   1.397       .  A
C575        H582   1.084       .  S
C576        C577   1.412       .  A
C577        C578   1.395       .  A
C577        N584   1.429       .  S
C578        C579   1.403       .  A
C578        H583   1.084       .  S
C579        C580   1.412       .  A
C580        N581   1.430       .  S
N581        O585   1.262       .  A
N581        O586   1.262       .  A
N584        O588   1.261       .  A
N584        O587   1.262       .  A
C589        C594   1.401       .  A
C589       C1934   1.403       .  A
C589        H596   1.087       .  S
C590        C591   1.410   1_655  A
C590       C1933   1.402       .  A
C591        C592   1.399       .  A
C591        N598   1.429       .  S
C592        C593   1.403   1_455  A
C592        H597   1.087       .  S
C593       C1938   1.411       .  A
C594       C1937   1.411       .  A
C594        N595   1.429       .  S
N595        O599   1.262       .  A
N595        O600   1.262       .  A
N598        O602   1.262       .  A
N598        O601   1.262       .  A
C603        C608   1.398   1_554  A
C603       C1948   1.404       .  A
C603        H610   1.086       .  S
C604        C605   1.414       .  A
C604       C1947   1.404   1_455  A
C605        C606   1.399   1_554  A
C605        N612   1.429       .  S
C606        C607   1.405       .  A
C606        H611   1.086       .  S
C607       C1952   1.413   1_455  A
C608       C1951   1.413       .  A
C608        N609   1.429       .  S
N609        O613   1.262       .  A
N609        O614   1.262       .  A
N612        O616   1.262       .  A
N612        O615   1.262       .  A
C617        C622   1.402       .  A
C617       C2634   1.409   1_565  A
C617        H624   1.086       .  S
C618        C619   1.417       .  A
C618       C2633   1.409       .  A
C619        C620   1.400       .  A
C619        N626   1.428       .  S
C620        C621   1.398       .  A
C620        H625   1.087       .  S
C621       C2638   1.406       .  A
C622       C2637   1.406   1_565  A
C622        N623   1.429       .  S
N623        O627   1.262   1_565  A
N623        O628   1.262       .  A
N626        O630   1.262       .  A
N626        O629   1.262       .  A
C631        C632   1.406       .  A
C631        C636   1.402   1_554  A
C631        H638   1.087       .  S
C632       C2649   1.413       .  A
C633        C634   1.399   1_554  A
C633       C2648   1.413   1_455  A
C633        N640   1.429       .  S
C634       C2651   1.405   1_445  A
C634        H639   1.087       .  S
C635        C636   1.413       .  A
C635       C2650   1.405       .  A
C636        N637   1.429       .  S
N637        O641   1.262       .  A
N637        O642   1.262       .  A
N640        O644   1.262       .  A
N640        O643   1.262       .  A
C645        C646   1.405       .  A
C645        C650   1.397       .  A
C645        H652   1.087       .  S
C646       C1991   1.413       .  A
C647        C648   1.394       .  A
C647       C1990   1.413   1_455  A
C647        N654   1.429       .  S
C648        C649   1.404   1_455  A
C648        H653   1.087       .  S
C649       C1994   1.413       .  A
C650       C1993   1.413       .  A
C650        N651   1.429       .  S
N651        O655   1.262       .  A
N651        O656   1.262       .  A
N654        O658   1.262       .  A
N654        O657   1.262       .  A
C659        C664   1.396       .  A
C659       C2004   1.403   1_455  A
C659        H666   1.087       .  S
C660        C661   1.412       .  A
C660       C2003   1.403       .  A
C661        C662   1.394       .  A
C661        N668   1.429       .  S
C662       C2007   1.402       .  A
C662        H667   1.087       .  S
C663        C664   1.412   1_655  A
C663       C2006   1.402       .  A
C664        N665   1.429       .  S
N665        O669   1.262       .  A
N665        O670   1.262       .  A
N668        O672   1.262       .  A
N668        O671   1.262       .  A
O673       C1355   1.265   1_455  A
O674        V681   1.901       .  S
O674       C2028   1.265   1_455  A
O675        V681   1.889   1_565  S
O675        C685   1.264   1_455  A
O676        C686   1.261   1_455  A
O677       C2030   1.264       .  A
O678        V682   1.894   1_565  S
O678       C2029   1.263       .  A
O680        V682   1.900       .  S
O680        C683   1.265       .  A
V681       V2026   2.085   1_455  T
V682       V2025   2.085       .  T
C683       O1345   1.265       .  A
C683       C1304   1.486       .  S
C684       O2018   1.265       .  A
C684       C1290   1.488       .  S
C685       O2022   1.263       .  A
C685       C1321   1.479       .  S
C686       O2021   1.264       .  A
C686       C1335   1.474       .  S
O687        V695   1.901       .  S
O687       C2041   1.264       .  A
O688        V695   1.896       .  S
O688       C2042   1.265       .  A
O689        V695   1.888       .  S
O689        C699   1.262       .  A
O690        V695   1.892       .  S
O690        C700   1.264       .  A
O691        V696   1.893       .  S
O691       C2044   1.263   1_455  A
O692        V696   1.894       .  S
O692       C2043   1.265   1_455  A
O693        V696   1.899       .  S
O693        C698   1.264   1_455  A
O694        V696   1.898       .  S
O694        C697   1.264   1_455  A
V695       V2040   2.085       .  T
V696       V2039   2.085   1_455  T
C697       O2031   1.264       .  A
C697       C1265   1.476       .  S
C698       O2032   1.265       .  A
C698       C1276   1.484   1_655  S
C699       O2036   1.264       .  A
C699       C1332   1.474       .  S
C700       O2035   1.263       .  A
C700       C1318   1.479       .  S
O701        V709   1.889       .  S
O701        C711   1.261       .  A
O702        C712   1.264       .  A
O703        V709   1.903       .  S
O704        C714   1.265       .  A
O706        V710   1.897       .  S
O706        C713   1.264       .  A
O707        V710   1.894       .  S
O707        C712   1.264       .  A
O708        C711   1.266       .  A
C711       C1237   1.477       .  S
C712       C1248   1.478       .  S
C713       C1223   1.487       .  S
C714       C1206   1.470       .  S
O715        V723   1.900       .  S
O715        C725   1.264       .  A
O716        V723   1.898       .  S
O716        C726   1.264       .  A
O717        V723   1.891       .  S
O717        C727   1.262       .  A
O718        V723   1.893       .  S
O718        C728   1.264       .  A
O719        V724   1.890       .  S
O719        C728   1.262       .  A
O720        V724   1.890       .  S
O720        C727   1.264       .  A
O721        V724   1.899       .  S
O721        C726   1.265       .  A
O722        V724   1.895       .  S
O722        C725   1.264       .  A
V723        V724   2.086       .  T
C725       C1181   1.473       .  S
C726       C1192   1.487       .  S
C727       C1251   1.476       .  S
C728       C1234   1.474       .  S
O729       C1411   1.262       .  A
O730        V737   1.895       .  S
O730       C2084   1.265   1_455  A
O731        V737   1.890       .  S
O731        C741   1.264   1_455  A
O732        C742   1.263       .  A
O733       C2086   1.264       .  A
O734        V738   1.900       .  S
O734       C2085   1.264       .  A
O736        V738   1.896       .  S
O736        C739   1.263       .  A
V737       V2082   2.087   1_455  T
V738       V2081   2.087       .  T
C739       O1401   1.262       .  A
C740       O2074   1.265       .  A
C740       C1307   1.485       .  S
C741       O2078   1.264       .  A
C741       C1150   1.480       .  S
C742       O2077   1.264   1_455  A
C742       C1164   1.472       .  S
O743        V751   1.899       .  S
O743       C2097   1.265       .  A
O744        V751   1.900       .  S
O744       C2098   1.264       .  A
O745        V751   1.888       .  S
O745        C755   1.262       .  A
O746        V751   1.894       .  S
O746        C756   1.264       .  A
O747        V752   1.897       .  S
O747       C2100   1.264       .  A
O748        V752   1.899       .  S
O748       C2099   1.264       .  A
O749        V752   1.901       .  S
O749        C754   1.265       .  A
O750        V752   1.895       .  S
O750        C753   1.264       .  A
V751       V2096   2.086       .  T
V752       V2095   2.086   1_455  T
C753       O2087   1.265   1_455  A
C753       C1279   1.484       .  S
C754       O2088   1.264   1_455  A
C754       C1122   1.477       .  S
C755       O2092   1.264       .  A
C755       C1167   1.471       .  S
C756       O2091   1.264       .  A
C756       C1153   1.480       .  S
O757        V765   1.894   1_565  S
O757        C767   1.264       .  A
O758        C768   1.265       .  A
O759        V765   1.888       .  S
O760        C770   1.262       .  A
O762        V766   1.910       .  S
O762        C769   1.268       .  A
O763        V766   1.890       .  S
O763        C768   1.262       .  A
O764        C767   1.262       .  A
C767       C1097   1.472       .  S
C768       C1108   1.482       .  S
C770       C1220   1.487       .  S
O771        V779   1.892       .  S
O771        C781   1.264       .  A
O772        V779   1.898       .  S
O772        C782   1.264       .  A
O773        V779   1.894       .  S
O773        C783   1.264       .  A
O774        V779   1.892       .  S
O774        C784   1.263       .  A
O775        V780   1.894       .  S
O775        C784   1.264       .  A
O776        V780   1.890       .  S
O776        C783   1.263       .  A
O777        V780   1.900       .  S
O777        C782   1.265       .  A
O778        V780   1.900       .  S
O778        C781   1.265       .  A
V779        V780   2.084       .  T
C781       C1195   1.484       .  S
C782       C1066   1.474       .  S
C783       C1111   1.479       .  S
C784       C1094   1.471       .  S
O785       V2137   1.894       .  S
O785       C1467   1.264       .  A
O786        V793   1.899       .  S
O787        V793   1.902       .  S
O787        C797   1.265       .  A
O788       V2137   1.899   1_455  S
O788        C798   1.266       .  A
O789       V2138   1.894   1_455  S
O790        V794   1.888       .  S
O791       V2138   1.903       .  S
O791       C2140   1.264   1_565  A
O792        V794   1.904       .  S
O792        C795   1.266   1_565  A
V793       O2129   1.895       .  S
V793       O2132   1.900       .  S
V794       O2133   1.895       .  S
V794       O2135   1.903       .  S
C795       O1457   1.264       .  A
C795       C1027   1.488       .  S
C796       O2135   1.264   1_545  A
C796       C1293   1.468       .  S
C797       C1041   1.472       .  S
C798       C1052   1.482       .  S
O799       V2151   1.902       .  S
O799       C2153   1.266       .  A
O800        V807   1.901       .  S
O800        C810   1.265       .  A
O801        V807   1.891   1_455  S
O801        C811   1.262       .  A
O802       V2151   1.890       .  S
O802        C812   1.264       .  A
O803       V2152   1.899       .  S
O803        C812   1.264       .  A
O804        V808   1.893   1_455  S
O804        C811   1.263       .  A
O805       V2152   1.897       .  S
O805       C2154   1.263       .  A
O806        V808   1.899       .  S
O806        C809   1.265       .  A
V807       O2143   1.900       .  S
V807       O2146   1.889       .  S
V807        V808   2.086       .  T
V808       O2147   1.900       .  S
V808       O2149   1.899       .  S
C809       O2143   1.265       .  A
C809        C982   1.488       .  S
C810       O2149   1.264       .  A
C810       C1262   1.474       .  S
C811       C1013   1.468       .  S
C812        C996   1.482       .  S
O813        V821   1.901       .  S
O814        V821   1.904       .  S
O815        V821   1.902       .  S
O815        C825   1.265   1_565  A
O816        V821   1.899       .  S
O816        C826   1.263       .  A
O817        V822   1.898       .  S
O818        V822   1.898       .  S
O819        V822   1.890       .  S
O819        C824   1.262       .  A
O820        V822   1.891       .  S
O820        C823   1.262       .  A
C823       C1055   1.480       .  S
C824       C1038   1.474       .  S
C825        C968   1.488       .  S
C826       C1209   1.479       .  S
O827        V835   1.895       .  S
O827        C837   1.263       .  A
O828        V835   1.899       .  S
O828        C838   1.264       .  A
O829        V835   1.906       .  S
O829        C839   1.267       .  A
O830        V835   1.905       .  S
O830        C840   1.265       .  A
O831        V836   1.896       .  S
O831        C840   1.263       .  A
O832        V836   1.902       .  S
O832        C839   1.265       .  A
O833        V836   1.891       .  S
O833        C838   1.264       .  A
O834        V836   1.893       .  S
O834        C837   1.263       .  A
V835        V836   2.084       .  T
C837       C1010   1.473       .  S
C838        C999   1.482       .  S
C839        C957   1.492       .  S
C840       C1178   1.476       .  S
O841       V2193   1.885       .  S
O841       C1523   1.262   1_565  A
O842        V849   1.889       .  S
O843        V849   1.898   1_455  S
O843        C853   1.266   1_565  A
O844       V2193   1.899       .  S
O844        C854   1.264   1_565  A
O845       V2194   1.890       .  S
O846        V850   1.891   1_455  S
O847       V2194   1.909       .  S
O847       C2196   1.267       .  A
O848        V850   1.907   1_455  S
O848        C851   1.267       .  A
V849       O2185   1.885   1_655  S
V849       O2188   1.899       .  S
V850       O2189   1.890       .  S
V850       O2191   1.909       .  S
C851       O1513   1.262       .  A
C851       C1139   1.482       .  S
C852       O2191   1.267       .  A
C852       C1024   1.487       .  S
C853        C940   1.480       .  S
C854        C926   1.473       .  S
O855       V2207   1.906       .  S
O855       C2209   1.265       .  A
O856        V863   1.905       .  S
O856        C866   1.266       .  A
O857        V863   1.897       .  S
O857        C867   1.264       .  A
O858       V2207   1.901       .  S
O858        C868   1.265       .  A
O859       V2208   1.891       .  S
O859        C868   1.263       .  A
O860        V864   1.895       .  S
O860        C867   1.264       .  A
O861       V2208   1.896       .  S
O861       C2210   1.262       .  A
O862        V864   1.895       .  S
O862        C865   1.265       .  A
V863       O2199   1.905       .  S
V863       O2202   1.900       .  S
V863        V864   2.086       .  T
V864       O2203   1.891       .  S
V864       O2205   1.897       .  S
C865       O2199   1.265       .  A
C865       C2329   1.488       .  S
C866       O2205   1.263       .  A
C866       C2469   1.477       .  S
C867        C898   1.478       .  S
C868        C912   1.476       .  S
O869        V877   1.895       .  S
O870        V877   1.893       .  S
O871        V877   1.894       .  S
O871        C881   1.263   1_565  A
O872        V877   1.896       .  S
O872        C882   1.265   1_565  A
O873        V878   1.904       .  S
O874        V878   1.905       .  S
O875        V878   1.893       .  S
O875        C880   1.263       .  A
O876        V878   1.897       .  S
O876        C879   1.266       .  A
C879        C943   1.481       .  S
C880        C929   1.474       .  S
C881       C1083   1.471       .  S
C882        C971   1.488       .  S
O883        V891   1.909       .  S
O883        C893   1.267       .  A
O884        V891   1.907       .  S
O884        C894   1.266       .  A
O885        V891   1.892       .  S
O885        C895   1.263       .  A
O886        V891   1.889       .  S
O886        C896   1.263       .  A
O887        V892   1.903       .  S
O887        C896   1.265       .  A
O888        V892   1.900       .  S
O888        C895   1.265       .  A
O889        V892   1.892       .  S
O889        C894   1.262       .  A
O890        V892   1.897       .  S
O890        C893   1.265       .  A
V891        V892   2.085       .  T
C893        C954   1.492       .  S
C894       C1069   1.474       .  S
C895        C915   1.475       .  S
C896        C901   1.477       .  S
C897        C898   1.404       .  A
C897        C902   1.399       .  A
C897        H904   1.087       .  S
C898        C899   1.412       .  A
C899        C900   1.397       .  A
C899        N906   1.429       .  S
C900        C901   1.403       .  A
C900        H905   1.087       .  S
C901        C902   1.411       .  A
C902        N903   1.429       .  S
N903        O907   1.262       .  A
N903        O908   1.262       .  A
N906        O910   1.262       .  A
N906        O909   1.262       .  A
C911        C912   1.404       .  A
C911        C916   1.398       .  A
C911        H918   1.087       .  S
C912        C913   1.411       .  A
C913        C914   1.398       .  A
C913        N920   1.429       .  S
C914        C915   1.404       .  A
C914        H919   1.087       .  S
C915        C916   1.410       .  A
C916        N917   1.429       .  S
N917        O921   1.262       .  A
N917        O922   1.262       .  A
N920        O924   1.262       .  A
N920        O923   1.262       .  A
C925        C930   1.396       .  A
C925        H932   1.087       .  S
C926        C927   1.410   1_545  A
C927        C928   1.397       .  A
C927        N934   1.429       .  S
C928        H933   1.087       .  S
C929        C930   1.412       .  A
C930        N931   1.429       .  S
N931        O935   1.262       .  A
N931        O936   1.262       .  A
N934        O938   1.262       .  A
N934        O937   1.262       .  A
C939        C940   1.404   1_565  A
C939        C944   1.398       .  A
C939        H946   1.087       .  S
C941        C942   1.397       .  A
C941        N948   1.429       .  S
C942        C943   1.404       .  A
C942        H947   1.087       .  S
C944        N945   1.429       .  S
N945        O949   1.262       .  A
N945        O950   1.262       .  A
N948        O952   1.262       .  A
N948        O951   1.262       .  A
C953        C954   1.406       .  A
C953        C958   1.400       .  A
C953        H960   1.086       .  S
C954        C955   1.415       .  A
C955        C956   1.404       .  A
C955        N962   1.429       .  S
C956        C957   1.407       .  A
C956        H961   1.086       .  S
C957        C958   1.415       .  A
C958        N959   1.429       .  S
N959        O963   1.262       .  A
N959        O964   1.262       .  A
N962        O966   1.262       .  A
N962        O965   1.262       .  A
C967        C972   1.401       .  A
C967        H974   1.086       .  S
C968        C969   1.414   1_545  A
C969        C970   1.399       .  A
C969        N976   1.429       .  S
C970        C971   1.406   1_565  A
C970        H975   1.086       .  S
C972        N973   1.429       .  S
N973        O977   1.262       .  A
N973        O978   1.262       .  A
N976        O979   1.262       .  A
C981       C2326   1.407       .  A
C981        C986   1.403       .  A
C981        H988   1.086       .  S
C982       C2325   1.407       .  A
C982        C983   1.414   1_655  A
C983        C984   1.397       .  A
C983        N990   1.429       .  S
C984        C985   1.405       .  A
C984        H989   1.086       .  S
C985       C2209   1.488       .  S
C985       C2330   1.414       .  A
C986       C2329   1.415       .  A
C986        N987   1.429       .  S
N987        O991   1.262       .  A
N987        O992   1.262       .  A
N990        O994   1.262       .  A
N990        O993   1.262   1_455  A
C995        C996   1.405       .  A
C995       C1000   1.397       .  A
C995       H1002   1.086       .  S
C996        C997   1.413       .  A
C997        C998   1.398       .  A
C997       N1004   1.429       .  S
C998        C999   1.405       .  A
C998       H1003   1.086       .  S
C999       C1000   1.413       .  A
C1000      N1001   1.429       .  S
N1001      O1005   1.262       .  A
N1001      O1006   1.262       .  A
N1004      O1008   1.262       .  A
N1004      O1007   1.262       .  A
C1009      C1010   1.404       .  A
C1009      C1014   1.399       .  A
C1009      H1016   1.084       .  S
C1010      C1011   1.412       .  A
C1011      C1012   1.396       .  A
C1011      N1018   1.429       .  S
C1012      C1013   1.400       .  A
C1012      H1017   1.084       .  S
C1013      C1014   1.410       .  A
C1014      N1015   1.431       .  S
N1015      O1019   1.262       .  A
N1015      O1020   1.262       .  A
N1018      O1022   1.262       .  A
N1018      O1021   1.262       .  A
C1023      C1028   1.398       .  A
C1023      H1030   1.086       .  S
C1024      C2369   1.413       .  A
C1025      C2368   1.413       .  A
C1025      C1026   1.402       .  A
C1025      N1032   1.429       .  S
C1026      H1031   1.086       .  S
C1027      C2372   1.412   1_545  A
C1028      C2371   1.412   1_565  A
C1028      N1029   1.429       .  S
N1029      O1033   1.262   1_655  A
N1029      O2378   1.262       .  A
N1032      O1036   1.262       .  A
N1032      O2379   1.262       .  A
O1034      N2373   1.262       .  A
O1035      N2376   1.262       .  A
C1037      C1038   1.404       .  A
C1037      C1042   1.398       .  A
C1037      H1044   1.087       .  S
C1039      C1040   1.397       .  A
C1039      N1046   1.429       .  S
C1040      H1045   1.087       .  S
C1041      C1042   1.409       .  A
C1042      N1043   1.429       .  S
N1043      O1047   1.262       .  A
N1043      O1048   1.262       .  A
N1046      O1050   1.262       .  A
N1046      O1049   1.262       .  A
C1051      C1052   1.404       .  A
C1051      C1056   1.397       .  A
C1051      H1058   1.084       .  S
C1053      C1054   1.399       .  A
C1053      N1060   1.429       .  S
C1054      H1059   1.084       .  S
C1055      C1056   1.413       .  A
C1056      N1057   1.429       .  S
N1057      O1062   1.262       .  A
N1060      O1063   1.262       .  A
C1065      C1066   1.403       .  A
C1065      C1070   1.401       .  A
C1065      H1072   1.087       .  S
C1066      C1067   1.410       .  A
C1067      C1068   1.398       .  A
C1067      N1074   1.429       .  S
C1068      C1069   1.403       .  A
C1068      H1073   1.087       .  S
C1069      C1070   1.410       .  A
C1070      N1071   1.429       .  S
N1071      O1075   1.262       .  A
N1071      O1076   1.262       .  A
N1074      O1078   1.262       .  A
N1074      O1077   1.262       .  A
C1079      C1084   1.403       .  A
C1079      H1086   1.086       .  S
C1080      C1081   1.415   1_545  A
C1081      C1082   1.397       .  A
C1081      N1088   1.429       .  S
C1082      C1083   1.398   1_565  A
C1082      H1087   1.087       .  S
C1084      N1085   1.429       .  S
N1085      O1089   1.262       .  A
N1085      O1090   1.262       .  A
N1088      O1092   1.262       .  A
N1088      O1091   1.262       .  A
C1093      C1094   1.402       .  A
C1093      C1098   1.398       .  A
C1093      H1100   1.087       .  S
C1094      C1095   1.410       .  A
C1095      C1096   1.395       .  A
C1095      N1102   1.429       .  S
C1096      C1097   1.402       .  A
C1096      H1101   1.087       .  S
C1097      C1098   1.412       .  A
C1098      N1099   1.429       .  S
N1099      O1103   1.262       .  A
N1099      O1104   1.262       .  A
N1102      O1106   1.262       .  A
N1102      O1105   1.262       .  A
C1107      C1108   1.406       .  A
C1107      C1112   1.399       .  A
C1107      H1114   1.083       .  S
C1108      C1109   1.415       .  A
C1109      C1110   1.396       .  A
C1109      N1116   1.429       .  S
C1110      C1111   1.403       .  A
C1110      H1115   1.084       .  S
C1111      C1112   1.412       .  A
C1112      N1113   1.430       .  S
N1113      O1117   1.262       .  A
N1113      O1118   1.262       .  A
N1116      O1120   1.262       .  A
N1116      O1119   1.262       .  A
C1121      C1122   1.402       .  A
C1121      C1126   1.401       .  A
C1121      H1128   1.087       .  S
C1122      C2467   1.411   1_455  A
C1123      C2466   1.411       .  A
C1123      C1124   1.400       .  A
C1123      N1130   1.429       .  S
C1124      C2469   1.402       .  A
C1124      H1129   1.087       .  S
C1125      C2210   1.476       .  S
C1125      C2468   1.401   1_455  A
C1125      C1126   1.412       .  A
C1126      N1127   1.429       .  S
N1127      O1131   1.262       .  A
N1127      O1132   1.262       .  A
N1130      O1134   1.262       .  A
N1130      O1133   1.262       .  A
C1135      C1136   1.398       .  A
C1135      C1140   1.399       .  A
C1135      H1142   1.088       .  S
C1136      C1809   1.402       .  A
C1137      C1808   1.402       .  A
C1137      C1138   1.397       .  A
C1137      N1144   1.429       .  S
C1138      H1143   1.087       .  S
C1139      C2484   1.414   1_455  A
C1140      C2483   1.414       .  A
C1140      N1141   1.428       .  S
N1141      O1145   1.262       .  A
N1141      O1146   1.262       .  A
N1144      O1148   1.262       .  A
N1144      O1147   1.262   1_455  A
C1149      C1150   1.404   1_455  A
C1149      C1154   1.396       .  A
C1149      H1156   1.087       .  S
C1150      C2495   1.412       .  A
C1151      C2494   1.412       .  A
C1151      C1152   1.399       .  A
C1151      N1158   1.429       .  S
C1152      C1153   1.405       .  A
C1152      H1157   1.087       .  S
C1153      C2498   1.412       .  A
C1154      C2497   1.412       .  A
C1154      N1155   1.429       .  S
N1155      O1159   1.262       .  A
N1155      O2504   1.262       .  A
N1158      O1162   1.262       .  A
N1158      O2505   1.262       .  A
O1160      N2499   1.262       .  A
O1161      N2502   1.262       .  A
C1163      C1164   1.404       .  A
C1163      C1168   1.398       .  A
C1163      H1170   1.087       .  S
C1164      C2509   1.410   1_455  A
C1165      C2508   1.410       .  A
C1165      C1166   1.396       .  A
C1165      N1172   1.429       .  S
C1166      C1167   1.402       .  A
C1166      H1171   1.087       .  S
C1167      C2512   1.409       .  A
C1168      C2511   1.409       .  A
C1168      N1169   1.429       .  S
N1169      O1173   1.262       .  A
N1169      O1174   1.262       .  A
N1172      O2520   1.262       .  A
N1172      O1175   1.262       .  A
O1176      N2516   1.262       .  A
C1177      C1178   1.405       .  A
C1177      C1182   1.404       .  A
C1177      H1184   1.084       .  S
C1178      C1179   1.410       .  A
C1179      C1180   1.397       .  A
C1179      N1186   1.429       .  S
C1180      C1181   1.400       .  A
C1180      H1185   1.085       .  S
C1181      C1182   1.410       .  A
C1182      N1183   1.430       .  S
N1183      O1187   1.262       .  A
N1183      O1188   1.262       .  A
N1186      O1190   1.262       .  A
N1186      O1189   1.262       .  A
C1191      C1192   1.407       .  A
C1191      C1196   1.401   1_554  A
C1191      H1198   1.084       .  S
C1192      C1193   1.414       .  A
C1193      C1194   1.397   1_554  A
C1193      N1200   1.429       .  S
C1194      C1195   1.404       .  A
C1194      H1199   1.084       .  S
C1195      C1196   1.413       .  A
C1196      N1197   1.429       .  S
N1197      O1201   1.262       .  A
N1197      O1202   1.262       .  A
N1200      O1204   1.262       .  A
N1200      O1203   1.262       .  A
C1205      C1210   1.403       .  A
C1205      H1212   1.084       .  S
C1206      C1207   1.407       .  A
C1207      C1208   1.397       .  A
C1207      N1214   1.427       .  S
C1208      H1213   1.084       .  S
C1209      C1210   1.414       .  A
C1210      N1211   1.429       .  S
N1211      O1215   1.262       .  A
N1214      O1218   1.262       .  A
C1219      C1220   1.407       .  A
C1219      C1224   1.397   1_556  A
C1219      H1226   1.086       .  S
C1221      C1222   1.403   1_556  A
C1221      N1228   1.429       .  S
C1222      H1227   1.086       .  S
C1223      C1224   1.412       .  A
C1224      N1225   1.429       .  S
N1225      O1229   1.262       .  A
N1225      O1230   1.262       .  A
N1228      O1232   1.262   1_545  A
N1228      O1231   1.262       .  A
C1233      C1234   1.401       .  A
C1233      C1238   1.395       .  A
C1233      H1240   1.087       .  S
C1234      C1235   1.412       .  A
C1235      C1236   1.397       .  A
C1235      N1242   1.429       .  S
C1236      C1237   1.403       .  A
C1236      H1241   1.087       .  S
C1237      C1238   1.414       .  A
C1238      N1239   1.429       .  S
N1239      O1243   1.262       .  A
N1239      O1244   1.262       .  A
N1242      O1246   1.262       .  A
N1242      O1245   1.262       .  A
C1247      C1248   1.406       .  A
C1247      C1252   1.398       .  A
C1247      H1254   1.084       .  S
C1248      C1249   1.412       .  A
C1249      C1250   1.395       .  A
C1249      N1256   1.429       .  S
C1250      C1251   1.403       .  A
C1250      H1255   1.084       .  S
C1251      C1252   1.412       .  A
C1252      N1253   1.430       .  S
N1253      O1257   1.262       .  A
N1253      O1258   1.262       .  A
N1256      O1260   1.261       .  A
N1256      O1259   1.262       .  A
C1261      C2606   1.403       .  A
C1261      C1266   1.401       .  A
C1261      H1268   1.087       .  S
C1262      C2605   1.402       .  A
C1262      C1263   1.410   1_655  A
C1263      C1264   1.399       .  A
C1263      N1270   1.429       .  S
C1264      C1265   1.403   1_455  A
C1264      H1269   1.087       .  S
C1265      C2610   1.411       .  A
C1266      C2609   1.411       .  A
C1266      N1267   1.429       .  S
N1267      O1271   1.262       .  A
N1267      O1272   1.262       .  A
N1270      O1274   1.262       .  A
N1270      O1273   1.262       .  A
C1275      C2620   1.404       .  A
C1275      C1280   1.397   1_554  A
C1275      H1282   1.086       .  S
C1276      C2619   1.404   1_455  A
C1276      C1277   1.414       .  A
C1277      C1278   1.399   1_554  A
C1277      N1284   1.429       .  S
C1278      C1279   1.405       .  A
C1278      H1283   1.086       .  S
C1279      C2624   1.413   1_455  A
C1280      C2623   1.413       .  A
C1280      N1281   1.429       .  S
N1281      O1285   1.262       .  A
N1281      O1286   1.262       .  A
N1284      O1288   1.262       .  A
N1284      O1287   1.262       .  A
C1289      C1962   1.409       .  A
C1289      C1294   1.402       .  A
C1289      H1296   1.086       .  S
C1290      C1961   1.409   1_545  A
C1290      C1291   1.417       .  A
C1291      C1292   1.400       .  A
C1291      N1298   1.428       .  S
C1292      C1293   1.398       .  A
C1292      H1297   1.087       .  S
C1293      C1966   1.406   1_545  A
C1294      C1965   1.406       .  A
C1294      N1295   1.429       .  S
N1295      O1299   1.262       .  A
N1295      O1300   1.262       .  A
N1298      O1302   1.262   1_545  A
N1298      O1301   1.262       .  A
C1303      C1304   1.406   1_565  A
C1303      C1308   1.402   1_554  A
C1303      H1310   1.087       .  S
C1304      C1977   1.413       .  A
C1305      C1976   1.413   1_455  A
C1305      C1306   1.398   1_554  A
C1305      N1312   1.429       .  S
C1306      C1979   1.405   1_455  A
C1306      H1311   1.087       .  S
C1307      C1978   1.405   1_565  A
C1307      C1308   1.413       .  A
C1308      N1309   1.429       .  S
N1309      O1313   1.262       .  A
N1309      O1314   1.262       .  A
N1312      O1316   1.262       .  A
N1312      O1315   1.262       .  A
C1317      C1318   1.405       .  A
C1317      C1322   1.397       .  A
C1317      H1324   1.087       .  S
C1318      C2663   1.413       .  A
C1319      C2662   1.413   1_455  A
C1319      C1320   1.394       .  A
C1319      N1326   1.429       .  S
C1320      C1321   1.404   1_455  A
C1320      H1325   1.087       .  S
C1321      C2666   1.413       .  A
C1322      C2665   1.413       .  A
C1322      N1323   1.429       .  S
N1323      O1327   1.262       .  A
N1323      O1328   1.262       .  A
N1326      O1330   1.262       .  A
N1326      O1329   1.262       .  A
C1331      C2676   1.403   1_455  A
C1331      C1336   1.396       .  A
C1331      H1338   1.087       .  S
C1332      C2675   1.403       .  A
C1332      C1333   1.413       .  A
C1333      C1334   1.394       .  A
C1333      N1340   1.429       .  S
C1334      C2679   1.402       .  A
C1334      H1339   1.087       .  S
C1335      C2678   1.402       .  A
C1335      C1336   1.412   1_655  A
C1336      N1337   1.429       .  S
N1337      O1341   1.262       .  A
N1337      O1342   1.262       .  A
N1340      O1344   1.262       .  A
N1340      O1343   1.262       .  A
O1345      V2025   1.901       .  S
O1346      V1353   1.901       .  S
O1347      V1353   1.889       .  S
O1347      C1357   1.264       .  A
O1348      V2025   1.891       .  S
O1348      C1358   1.262       .  A
O1349      V2026   1.892       .  S
O1350      V1354   1.895       .  S
O1351      V2026   1.901       .  S
O1351      C2028   1.266       .  A
O1352      V1354   1.900       .  S
O1352      C1355   1.265       .  A
V1353      O2017   1.901       .  S
V1353      O2020   1.891       .  S
V1354      O2021   1.892       .  S
V1354      O2023   1.901       .  S
C1355      C1976   1.486       .  S
C1356      O2023   1.266       .  A
C1356      C1962   1.489       .  S
C1357      C1993   1.479       .  S
C1358      C2007   1.473       .  S
O1359      V1367   1.902       .  S
O1360      V1367   1.897       .  S
O1361      V1367   1.888       .  S
O1361      C1371   1.261       .  A
O1362      V1367   1.891       .  S
O1362      C1372   1.264       .  A
O1363      V1368   1.893       .  S
O1364      V1368   1.893       .  S
O1365      V1368   1.899       .  S
O1365      C1370   1.264       .  A
O1366      V1368   1.897       .  S
O1366      C1369   1.264       .  A
C1369      C1937   1.474       .  S
C1370      C1948   1.484       .  S
C1371      C2004   1.475       .  S
C1372      C1990   1.479       .  S
O1373      V1381   1.890       .  S
O1373      C1383   1.262       .  A
O1374      V2053   1.892   1_545  S
O1374      C1384   1.264       .  A
O1375      V1381   1.903       .  S
O1375      C2057   1.266       .  A
O1376      V2053   1.905       .  S
O1376      C1386   1.265       .  A
O1377      V2054   1.895       .  S
O1377      C2058   1.262       .  A
O1378      V1382   1.897       .  S
O1378      C1385   1.264       .  A
O1379      V1382   1.895   1_545  S
O1379      C1384   1.263       .  A
O1380      V2054   1.899       .  S
O1380      C1383   1.266       .  A
V1381      O2046   1.893       .  S
V1381      O2048   1.905       .  S
V1381      V2054   2.086       .  T
V1382      O2049   1.895       .  S
V1382      O2052   1.896       .  S
V1382      V2053   2.086       .  T
C1383      C1909   1.477       .  S
C1384      C1920   1.477       .  S
C1385      O2047   1.266       .  A
C1385      C1895   1.487       .  S
C1386      O2049   1.262       .  A
C1386      C1878   1.470       .  S
O1387      V1395   1.902       .  S
O1387      C1397   1.264       .  A
O1388      V1395   1.901       .  S
O1388      C1398   1.265       .  A
O1389      V1395   1.890       .  S
O1389      C1399   1.262       .  A
O1390      V1395   1.895       .  S
O1390      C1400   1.265       .  A
O1391      V1396   1.891       .  S
O1391      C1400   1.262       .  A
O1392      V1396   1.891       .  S
O1392      C1399   1.264       .  A
O1393      V1396   1.899       .  S
O1393      C1398   1.265       .  A
O1394      V1396   1.895       .  S
O1394      C1397   1.263       .  A
V1395      V1396   2.087       .  T
C1397      C1853   1.472       .  S
C1398      C1864   1.482       .  S
C1399      C1923   1.475       .  S
C1400      C1906   1.475       .  S
O1401      V2081   1.897       .  S
O1402      V1409   1.895       .  S
O1403      V1409   1.890       .  S
O1403      C1413   1.263       .  A
O1404      V2081   1.891   1_545  S
O1404      C1414   1.263       .  A
O1405      V2082   1.898   1_545  S
O1406      V1410   1.900       .  S
O1407      V2082   1.905       .  S
O1407      C2084   1.265       .  A
O1408      V1410   1.896       .  S
O1408      C1411   1.263   1_655  A
V1409      O2073   1.897       .  S
V1409      O2076   1.891       .  S
V1410      O2077   1.898       .  S
V1410      O2079   1.905       .  S
C1411      C2480   1.461       .  S
C1412      O2079   1.265       .  A
C1412      C1979   1.485       .  S
C1413      C1822   1.479       .  S
C1414      C1836   1.472       .  S
O1415      V1423   1.900       .  S
O1416      V1423   1.901       .  S
O1417      V1423   1.888       .  S
O1417      C1427   1.262   1_655  A
O1418      V1423   1.895       .  S
O1418      C1428   1.264   1_655  A
O1419      V1424   1.898       .  S
O1420      V1424   1.899       .  S
O1421      V1424   1.901       .  S
O1421      C1426   1.265       .  A
O1422      V1424   1.896       .  S
O1422      C1425   1.264       .  A
C1425      C1951   1.484       .  S
C1426      C1794   1.477       .  S
C1427      C1839   1.471       .  S
C1428      C1825   1.480       .  S
O1429      V1437   1.894       .  S
O1429      C1439   1.264       .  A
O1430      V2109   1.900       .  S
O1430      C1440   1.265       .  A
O1431      V1437   1.889       .  S
O1431      C2113   1.261       .  A
O1432      V2109   1.886       .  S
O1432      C1442   1.262       .  A
O1433      V2110   1.915       .  S
O1433      C2114   1.268       .  A
O1434      V1438   1.909       .  S
O1434      C1441   1.268       .  A
O1435      V1438   1.890       .  S
O1435      C1440   1.262       .  A
O1436      V2110   1.894       .  S
O1436      C1439   1.262       .  A
V1437      O2102   1.898       .  S
V1437      O2104   1.885       .  S
V1437      V2110   2.085       .  T
V1438      O2105   1.914       .  S
V1438      O2108   1.894   1_545  S
V1438      V2109   2.085       .  T
C1439      C1769   1.474       .  S
C1440      C1780   1.480       .  S
C1441      O2103   1.261       .  A
C1441      C2424   1.480       .  S
C1442      O2105   1.268       .  A
C1442      C1892   1.487       .  S
O1443      V1451   1.892       .  S
O1443      C1453   1.264       .  A
O1444      V1451   1.899       .  S
O1444      C1454   1.264       .  A
O1445      V1451   1.896       .  S
O1445      C1455   1.264       .  A
O1446      V1451   1.894       .  S
O1446      C1456   1.263       .  A
O1447      V1452   1.893       .  S
O1447      C1456   1.263       .  A
O1448      V1452   1.890       .  S
O1448      C1455   1.263       .  A
O1449      V1452   1.899       .  S
O1449      C1454   1.265       .  A
O1450      V1452   1.899       .  S
O1450      C1453   1.265       .  A
V1451      V1452   2.085       .  T
C1453      C1867   1.479       .  S
C1454      C1738   1.475       .  S
C1455      C1783   1.476       .  S
C1456      C1766   1.473       .  S
O1458      V1465   1.898       .  S
O1458      C2140   1.263       .  A
O1459      V1465   1.902       .  S
O1459      C1469   1.265       .  A
O1460      C1470   1.266       .  A
O1461      C2142   1.262       .  A
O1462      V1466   1.888       .  S
O1462      C2141   1.262       .  A
O1464      V1466   1.904       .  S
O1464      C1467   1.266       .  A
V1465      V2138   2.087   1_545  T
V1466      V2137   2.087       .  T
C1467      C1699   1.488       .  S
C1468      O2130   1.263       .  A
C1468      C1965   1.468       .  S
C1469      O2134   1.262   1_545  A
C1469      C1713   1.471       .  S
C1470      O2133   1.262   1_545  A
C1470      C1724   1.481   1_545  S
O1472      V1479   1.901       .  S
O1472      C1482   1.265       .  A
O1473      V1479   1.892       .  S
O1473      C1483   1.263       .  A
O1474      C1484   1.263       .  A
O1475      C1484   1.264       .  A
O1476      V1480   1.892       .  S
O1476      C1483   1.264       .  A
O1478      V1480   1.898       .  S
O1478      C1481   1.264       .  A
V1479      V1480   2.085       .  T
C1481      C1654   1.489       .  S
C1482      C1934   1.474       .  S
C1483      C1685   1.475       .  S
C1484      C1668   1.482       .  S
O1485      V1493   1.901       .  S
O1485      C2167   1.266       .  A
O1486      V1493   1.904       .  S
O1486      C2168   1.266       .  A
O1487      V1493   1.903       .  S
O1487      C1497   1.265       .  A
O1488      V1493   1.900       .  S
O1488      C1498   1.263       .  A
O1489      V1494   1.897       .  S
O1489      C2170   1.266   1_545  A
O1490      V1494   1.897       .  S
O1490      C2169   1.265       .  A
O1491      V1494   1.889       .  S
O1491      C1496   1.262   1_545  A
O1492      V1494   1.890       .  S
O1492      C1495   1.262   1_545  A
V1493      V2166   2.085       .  T
V1494      V2165   2.085   1_545  T
C1495      O2157   1.266       .  A
C1495      C1727   1.479       .  S
C1496      O2158   1.266       .  A
C1496      C1710   1.473   1_565  S
C1497      O2162   1.265       .  A
C1497      C1640   1.488       .  S
C1498      O2161   1.266       .  A
C1498      C1881   1.480       .  S
O1499      V1507   1.896       .  S
O1499      C1509   1.264       .  A
O1500      V1507   1.899       .  S
O1500      C1510   1.264       .  A
O1501      V1507   1.909       .  S
O1501      C1511   1.268       .  A
O1502      V1507   1.907       .  S
O1502      C1512   1.266       .  A
O1503      V1508   1.898       .  S
O1503      C1512   1.264       .  A
O1504      V1508   1.899       .  S
O1504      C1511   1.264       .  A
O1505      V1508   1.891       .  S
O1505      C1510   1.263       .  A
O1506      V1508   1.892       .  S
O1506      C1509   1.263       .  A
V1507      V1508   2.085       .  T
C1509      C1682   1.477       .  S
C1510      C1671   1.482       .  S
C1511      C1629   1.493       .  S
C1512      C1850   1.480       .  S
O1514      V1521   1.888       .  S
O1514      C2196   1.263       .  A
O1515      V1521   1.897       .  S
O1515      C1525   1.266       .  A
O1516      C1526   1.264       .  A
O1517      C2198   1.263       .  A
O1518      V1522   1.892       .  S
O1518      C2197   1.262       .  A
O1520      V1522   1.908       .  S
O1520      C1523   1.267       .  A
V1521      V2194   2.085       .  T
V1522      V2193   2.085   1_545  T
C1523      C1811   1.483       .  S
C1524      O2186   1.263   1_545  A
C1524      C1696   1.487       .  S
C1525      O2190   1.262       .  A
C1525      C1612   1.481       .  S
C1526      O2189   1.263       .  A
C1526      C1598   1.473       .  S
O1528      V1535   1.906       .  S
O1528      C1538   1.266       .  A
O1529      V1535   1.897   1_655  S
O1529      C1539   1.264       .  A
O1530      C1540   1.265       .  A
O1531      C1540   1.263       .  A
O1532      V1536   1.895   1_655  S
O1532      C1539   1.264       .  A
O1534      V1536   1.893       .  S
O1534      C1537   1.265       .  A
V1535      V1536   2.086       .  T
C1539      C1570   1.478       .  S
C1540      C1584   1.477       .  S
O1541      V1549   1.895       .  S
O1541      C2223   1.263       .  A
O1542      V1549   1.893       .  S
O1542      C2224   1.264       .  A
O1543      V1549   1.894       .  S
O1543      C1553   1.263       .  A
O1544      V1549   1.895       .  S
O1544      C1554   1.265       .  A
O1545      V1550   1.904       .  S
O1545      C2226   1.265       .  A
O1546      V1550   1.905       .  S
O1546      C2225   1.265       .  A
O1547      V1550   1.894       .  S
O1547      C1552   1.263       .  A
O1548      V1550   1.897       .  S
O1548      C1551   1.266       .  A
V1549      V2222   2.084       .  T
V1550      V2221   2.084   1_545  T
C1551      O2213   1.263   1_545  A
C1551      C1615   1.482       .  S
C1552      O2214   1.264   1_545  A
C1552      C1601   1.474       .  S
C1553      O2218   1.265       .  A
C1553      C1755   1.470       .  S
C1554      O2217   1.265       .  A
C1554      C1643   1.488       .  S
O1555      V1563   1.909       .  S
O1555      C1565   1.266       .  A
O1556      V1563   1.907       .  S
O1556      C1566   1.266       .  A
O1557      V1563   1.892       .  S
O1557      C1567   1.263       .  A
O1558      V1563   1.891       .  S
O1558      C1568   1.263       .  A
O1559      V1564   1.902       .  S
O1559      C1568   1.265       .  A
O1560      V1564   1.899       .  S
O1560      C1567   1.264       .  A
O1561      V1564   1.893       .  S
O1561      C1566   1.263       .  A
O1562      V1564   1.898       .  S
O1562      C1565   1.266       .  A
V1563      V1564   2.085       .  T
C1565      C1626   1.493       .  S
C1566      C1741   1.476       .  S
C1567      C1587   1.476       .  S
C1568      C1573   1.478       .  S
C1569      C1570   1.404       .  A
C1569      C1574   1.399       .  A
C1569      H1576   1.087       .  S
C1570      C1571   1.412       .  A
C1571      C1572   1.397       .  A
C1571      N1578   1.429       .  S
C1572      C1573   1.404       .  A
C1572      H1577   1.087       .  S
C1573      C1574   1.411       .  A
C1574      N1575   1.429       .  S
N1575      O1579   1.262       .  A
N1575      O1580   1.262       .  A
N1578      O1582   1.262       .  A
N1578      O1581   1.262       .  A
C1583      C1584   1.404       .  A
C1583      C1588   1.397       .  A
C1583      H1590   1.087       .  S
C1584      C1585   1.411       .  A
C1585      C1586   1.398       .  A
C1585      N1592   1.429       .  S
C1586      C1587   1.404       .  A
C1586      H1591   1.087       .  S
C1587      C1588   1.410       .  A
C1588      N1589   1.429       .  S
N1589      O1593   1.262       .  A
N1589      O1594   1.262       .  A
N1592      O1596   1.262       .  A
N1592      O1595   1.262       .  A
C1597      C2270   1.403       .  A
C1597      C1602   1.396       .  A
C1597      H1604   1.087       .  S
C1598      C2269   1.403       .  A
C1598      C1599   1.410       .  A
C1599      C1600   1.397       .  A
C1599      N1606   1.429       .  S
C1600      C2273   1.404       .  A
C1600      H1605   1.087       .  S
C1601      C2272   1.404   1_545  A
C1601      C1602   1.412       .  A
C1602      N1603   1.429       .  S
N1603      O1607   1.262       .  A
N1603      O1608   1.262       .  A
N1606      O1610   1.262       .  A
N1606      O1609   1.262       .  A
C1611      C1612   1.404       .  A
C1611      C1616   1.398       .  A
C1611      H1618   1.087       .  S
C1612      C2285   1.414       .  A
C1613      C2284   1.414       .  A
C1613      C1614   1.397       .  A
C1613      N1620   1.429       .  S
C1614      C1615   1.404       .  A
C1614      H1619   1.087       .  S
C1615      C2288   1.414   1_545  A
C1616      C2287   1.414       .  A
C1616      N1617   1.429       .  S
N1617      O1621   1.262       .  A
N1617      O1622   1.262       .  A
N1620      O1624   1.262       .  A
N1620      O1623   1.262       .  A
C1625      C1626   1.405       .  A
C1625      C1630   1.400       .  A
C1625      H1632   1.086       .  S
C1626      C1627   1.415       .  A
C1627      C1628   1.405       .  A
C1627      N1634   1.429       .  S
C1628      C1629   1.407       .  A
C1628      H1633   1.086       .  S
C1629      C1630   1.415       .  A
C1630      N1631   1.429       .  S
N1631      O1635   1.262       .  A
N1631      O1636   1.262       .  A
N1634      O1638   1.262       .  A
N1634      O1637   1.262       .  A
C1639      C2312   1.406       .  A
C1639      C1644   1.400       .  A
C1639      H1646   1.086       .  S
C1640      C2311   1.406       .  A
C1640      C1641   1.414       .  A
C1641      C1642   1.399       .  A
C1641      N1648   1.429       .  S
C1642      C1643   1.406       .  A
C1642      H1647   1.086       .  S
C1643      C2316   1.414       .  A
C1644      C2315   1.414       .  A
C1644      N1645   1.429       .  S
N1645      O1649   1.262       .  A
N1645      O1650   1.262       .  A
N1648      O2324   1.262       .  A
N1648      O1651   1.262       .  A
O1652      N2320   1.262       .  A
C1653      C1658   1.403   1_655  A
C1653      H1660   1.086       .  S
C1654      C1655   1.414       .  A
C1655      C1656   1.398       .  A
C1655      N1662   1.429       .  S
C1656      C1657   1.405       .  A
C1656      H1661   1.086       .  S
C1658      N1659   1.429       .  S
N1659      O1663   1.262   1_455  A
N1659      O1664   1.262       .  A
N1662      O1666   1.262       .  A
N1662      O1665   1.262       .  A
C1667      C1668   1.405       .  A
C1667      C1672   1.397       .  A
C1667      H1674   1.087       .  S
C1668      C1669   1.413       .  A
C1669      C1670   1.398       .  A
C1669      N1676   1.429       .  S
C1670      C1671   1.406       .  A
C1670      H1675   1.087       .  S
C1671      C1672   1.412       .  A
C1672      N1673   1.429       .  S
N1673      O1677   1.262       .  A
N1673      O1678   1.262       .  A
N1676      O1680   1.262       .  A
N1676      O1679   1.262       .  A
C1681      C1682   1.405       .  A
C1681      C1686   1.400       .  A
C1681      H1688   1.084       .  S
C1682      C1683   1.411       .  A
C1683      C1684   1.395       .  A
C1683      N1690   1.429       .  S
C1684      C1685   1.402       .  A
C1684      H1689   1.084       .  S
C1685      C1686   1.412       .  A
C1686      N1687   1.431       .  S
N1687      O1691   1.262       .  A
N1687      O1692   1.262       .  A
N1690      O1694   1.262       .  A
N1690      O1693   1.262       .  A
C1695      C2368   1.407       .  A
C1695      C1700   1.398       .  A
C1695      H1702   1.086       .  S
C1696      C2367   1.407   1_545  A
C1697      C1698   1.402       .  A
C1697      N1704   1.429   1_655  S
C1698      C2371   1.408       .  A
C1698      H1703   1.086   1_655  S
C1699      C2370   1.408       .  A
C1700      N1701   1.429       .  S
N1701      O1705   1.262       .  A
N1704      O1708   1.262   1_455  A
C1709      C1710   1.404       .  A
C1709      C1714   1.398       .  A
C1709      H1716   1.087       .  S
C1710      C2383   1.409   1_545  A
C1711      C2382   1.409       .  A
C1711      C1712   1.397       .  A
C1711      N1718   1.429       .  S
C1712      C2385   1.403       .  A
C1712      H1717   1.087       .  S
C1713      C2384   1.403   1_545  A
C1713      C1714   1.409       .  A
C1714      N1715   1.429       .  S
N1715      O1719   1.262       .  A
N1715      O1720   1.262       .  A
N1718      O1722   1.262       .  A
N1718      O1721   1.262       .  A
C1723      C1724   1.403   1_545  A
C1723      C1728   1.398       .  A
C1723      H1730   1.084       .  S
C1724      C2397   1.414       .  A
C1725      C2396   1.414       .  A
C1725      C1726   1.399       .  A
C1725      N1732   1.429       .  S
C1726      C2399   1.403       .  A
C1726      H1731   1.084       .  S
C1727      C2398   1.403       .  A
C1727      C1728   1.413   1_565  A
C1728      N1729   1.429       .  S
N1729      O2405   1.262       .  A
N1729      O1734   1.262       .  A
N1732      O2408   1.262       .  A
N1732      O1735   1.262       .  A
O1733      N2401   1.262       .  A
O1736      N2404   1.262       .  A
C1737      C1738   1.403       .  A
C1737      C1742   1.401       .  A
C1737      H1744   1.087       .  S
C1738      C1739   1.410       .  A
C1739      C1740   1.399       .  A
C1739      N1746   1.429       .  S
C1740      C1741   1.404       .  A
C1740      H1745   1.087       .  S
C1741      C1742   1.410       .  A
C1742      N1743   1.429       .  S
N1743      O1747   1.262       .  A
N1743      O1748   1.262       .  A
N1746      O1750   1.262       .  A
N1746      O1749   1.262       .  A
C1751      C2424   1.404       .  A
C1751      C1756   1.402       .  A
C1751      H1758   1.086       .  S
C1752      C2113   1.480       .  S
C1752      C2423   1.404       .  A
C1752      C1753   1.415       .  A
C1753      C1754   1.397       .  A
C1753      N1760   1.429       .  S
C1754      C1755   1.398       .  A
C1754      H1759   1.087       .  S
C1755      C2428   1.409       .  A
C1756      C2427   1.409       .  A
C1756      N1757   1.429       .  S
N1757      O1761   1.262       .  A
N1757      O1762   1.262       .  A
N1760      O1764   1.262       .  A
N1760      O1763   1.262       .  A
C1765      C1766   1.403       .  A
C1765      C1770   1.397       .  A
C1765      H1772   1.087       .  S
C1766      C1767   1.411       .  A
C1767      C1768   1.396       .  A
C1767      N1774   1.429       .  S
C1768      C1769   1.402       .  A
C1768      H1773   1.087       .  S
C1769      C1770   1.412       .  A
C1770      N1771   1.429       .  S
N1771      O1775   1.262       .  A
N1771      O1776   1.262       .  A
N1774      O1778   1.262       .  A
N1774      O1777   1.262       .  A
C1779      C1780   1.406       .  A
C1779      C1784   1.400       .  A
C1779      H1786   1.084       .  S
C1780      C1781   1.414       .  A
C1781      C1782   1.396       .  A
C1781      N1788   1.429       .  S
C1782      C1783   1.402       .  A
C1782      H1787   1.084       .  S
C1783      C1784   1.411       .  A
C1784      N1785   1.430       .  S
N1785      O1789   1.262       .  A
N1785      O1790   1.262       .  A
N1788      O1792   1.262       .  A
N1788      O1791   1.262       .  A
C1793      C1794   1.403       .  A
C1793      C1798   1.401       .  A
C1793      H1800   1.087       .  S
C1795      C1796   1.400       .  A
C1795      N1802   1.429       .  S
C1796      H1801   1.087       .  S
C1797      C1798   1.412       .  A
C1798      N1799   1.429       .  S
N1799      O1803   1.262       .  A
N1799      O1804   1.262       .  A
N1802      O1806   1.262       .  A
N1802      O1805   1.262       .  A
C1807      C1808   1.398   1_645  A
C1807      C1812   1.398       .  A
C1807      H1814   1.088       .  S
C1808      C2083   1.461       .  S
C1809      C1810   1.397       .  A
C1809      N1816   1.429       .  S
C1810      C2483   1.409       .  A
C1810      H1815   1.087       .  S
C1811      C2482   1.410   1_545  A
C1812      N1813   1.428       .  S
N1813      O1817   1.262       .  A
N1813      O1818   1.262   1_655  A
N1816      O1820   1.262       .  A
N1816      O1819   1.261       .  A
C1821      C1822   1.404       .  A
C1821      C1826   1.397       .  A
C1821      H1828   1.087       .  S
C1823      C1824   1.399       .  A
C1823      N1830   1.429       .  S
C1824      C1825   1.405   1_655  A
C1824      H1829   1.087       .  S
C1826      N1827   1.429       .  S
N1827      O1831   1.262       .  A
N1830      O1834   1.262       .  A
C1835      C1836   1.404       .  A
C1835      C1840   1.398       .  A
C1835      H1842   1.087       .  S
C1837      C1838   1.396       .  A
C1837      N1844   1.429       .  S
C1838      C1839   1.402   1_655  A
C1838      H1843   1.087       .  S
C1840      N1841   1.429       .  S
N1841      O1845   1.262       .  A
N1841      O1846   1.262       .  A
N1844      O1847   1.262       .  A
C1849      C1850   1.407       .  A
C1849      C1854   1.405       .  A
C1849      H1856   1.084       .  S
C1850      C1851   1.412       .  A
C1851      C1852   1.398       .  A
C1851      N1858   1.429       .  S
C1852      C1853   1.399       .  A
C1852      H1857   1.085       .  S
C1853      C1854   1.409       .  A
C1854      N1855   1.430       .  S
N1855      O1859   1.262       .  A
N1855      O1860   1.262       .  A
N1858      O1862   1.262       .  A
N1858      O1861   1.262       .  A
C1863      C1864   1.407       .  A
C1863      C1868   1.402   1_554  A
C1863      H1870   1.084       .  S
C1864      C1865   1.412       .  A
C1865      C1866   1.397   1_554  A
C1865      N1872   1.428       .  S
C1866      C1867   1.402       .  A
C1866      H1871   1.084       .  S
C1867      C1868   1.412       .  A
C1868      N1869   1.430       .  S
N1869      O1873   1.262       .  A
N1869      O1874   1.262       .  A
N1872      O1876   1.261       .  A
N1872      O1875   1.262       .  A
C1877      C2550   1.401       .  A
C1877      C1882   1.403       .  A
C1877      H1884   1.084       .  S
C1878      C2549   1.401       .  A
C1878      C1879   1.406   1_565  A
C1879      C1880   1.396       .  A
C1879      N1886   1.427       .  S
C1880      C2553   1.402   1_545  A
C1880      H1885   1.084       .  S
C1881      C2552   1.403       .  A
C1881      C1882   1.415       .  A
C1882      N1883   1.429       .  S
N1883      O1887   1.262       .  A
N1883      O2560   1.262       .  A
N1886      O1890   1.262       .  A
N1886      O2561   1.262       .  A
O1888      N2555   1.262       .  A
O1889      N2558   1.262       .  A
C1891      C1892   1.406   1_565  A
C1891      C1896   1.397   1_556  A
C1891      H1898   1.086       .  S
C1892      C2565   1.412       .  A
C1893      C2564   1.412       .  A
C1893      C1894   1.403   1_556  A
C1893      N1900   1.429       .  S
C1894      C2567   1.408       .  A
C1894      H1899   1.086       .  S
C1895      C2566   1.408   1_565  A
C1895      C1896   1.412       .  A
C1896      N1897   1.429       .  S
N1897      O1901   1.262   1_565  A
N1897      O1902   1.262       .  A
N1900      O1904   1.262       .  A
N1900      O1903   1.262       .  A
C1905      C1906   1.401       .  A
C1905      C1910   1.396       .  A
C1905      H1912   1.087       .  S
C1906      C1907   1.412       .  A
C1907      C1908   1.397       .  A
C1907      N1914   1.429       .  S
C1908      C1909   1.403       .  A
C1908      H1913   1.087       .  S
C1909      C1910   1.414       .  A
C1910      N1911   1.429       .  S
N1911      O1915   1.262       .  A
N1911      O1916   1.262       .  A
N1914      O1918   1.262       .  A
N1914      O1917   1.262       .  A
C1919      C1920   1.405       .  A
C1919      C1924   1.397       .  A
C1919      H1926   1.084       .  S
C1920      C1921   1.412       .  A
C1921      C1922   1.395       .  A
C1921      N1928   1.429       .  S
C1922      C1923   1.402       .  A
C1922      H1927   1.084       .  S
C1923      C1924   1.411       .  A
C1924      N1925   1.429       .  S
N1925      O1929   1.261       .  A
N1925      O1930   1.262       .  A
N1928      O1932   1.261       .  A
N1928      O1931   1.262       .  A
C1933      C1938   1.401       .  A
C1933      H1940   1.087       .  S
C1934      C1935   1.410       .  A
C1935      C1936   1.398       .  A
C1935      N1942   1.429       .  S
C1936      C1937   1.401       .  A
C1936      H1941   1.087       .  S
C1938      N1939   1.429       .  S
N1939      O1943   1.262       .  A
N1939      O1944   1.262       .  A
N1942      O1946   1.262       .  A
N1942      O1945   1.262       .  A
C1947      C1952   1.398   1_554  A
C1947      H1954   1.086       .  S
C1948      C1949   1.414       .  A
C1949      C1950   1.400   1_554  A
C1949      N1956   1.429       .  S
C1950      C1951   1.406       .  A
C1950      H1955   1.086       .  S
C1952      N1953   1.429       .  S
N1953      O1957   1.262       .  A
N1953      O1958   1.262       .  A
N1956      O1960   1.262       .  A
N1956      O1959   1.262       .  A
C1961      C1966   1.402       .  A
C1961      H1968   1.086       .  S
C1962      C1963   1.417   1_655  A
C1963      C1964   1.400       .  A
C1963      N1970   1.428       .  S
C1964      C1965   1.398   1_455  A
C1964      H1969   1.087       .  S
C1966      N1967   1.429       .  S
N1967      O1971   1.262   1_565  A
N1967      O1972   1.262       .  A
N1970      O1974   1.262       .  A
N1970      O1973   1.262       .  A
C1975      C1976   1.406       .  A
C1975      C1980   1.402   1_554  A
C1975      H1982   1.087       .  S
C1977      C1978   1.399   1_554  A
C1977      N1984   1.429       .  S
C1978      H1983   1.087       .  S
C1979      C1980   1.413       .  A
C1980      N1981   1.429       .  S
N1981      O1985   1.262       .  A
N1981      O1986   1.262       .  A
N1984      O1988   1.262       .  A
N1984      O1987   1.262       .  A
C1989      C1990   1.405       .  A
C1989      C1994   1.397       .  A
C1989      H1996   1.087       .  S
C1991      C1992   1.395       .  A
C1991      N1998   1.429       .  S
C1992      C1993   1.404       .  A
C1992      H1997   1.087       .  S
C1994      N1995   1.429       .  S
N1995      O1999   1.262       .  A
N1995      O2000   1.262       .  A
N1998      O2002   1.262       .  A
N1998      O2001   1.262       .  A
C2003      C2008   1.396       .  A
C2003      H2010   1.087       .  S
C2004      C2005   1.413       .  A
C2005      C2006   1.394       .  A
C2005      N2012   1.429       .  S
C2006      H2011   1.087       .  S
C2007      C2008   1.412       .  A
C2008      N2009   1.429       .  S
N2009      O2013   1.262       .  A
N2009      O2014   1.262       .  A
N2012      O2016   1.262       .  A
N2012      O2015   1.262       .  A
O2018      V2025   1.901       .  S
O2019      V2025   1.890   1_565  S
O2019      C2029   1.264       .  A
O2020      C2030   1.262       .  A
O2022      V2026   1.895   1_565  S
O2024      V2026   1.900       .  S
O2024      C2027   1.265       .  A
C2027      C2648   1.486       .  S
C2028      C2634   1.489       .  S
C2029      C2665   1.479       .  S
C2030      C2679   1.473       .  S
O2031      V2039   1.902       .  S
O2032      V2039   1.897       .  S
O2033      V2039   1.888       .  S
O2033      C2043   1.261       .  A
O2034      V2039   1.891       .  S
O2034      C2044   1.264       .  A
O2035      V2040   1.893       .  S
O2036      V2040   1.893       .  S
O2037      V2040   1.899       .  S
O2037      C2042   1.264       .  A
O2038      V2040   1.897       .  S
O2038      C2041   1.264       .  A
C2041      C2609   1.474       .  S
C2042      C2620   1.483       .  S
C2043      C2676   1.475       .  S
C2044      C2662   1.479       .  S
O2045      V2053   1.889       .  S
O2045      C2055   1.261       .  A
O2046      C2056   1.264       .  A
O2047      V2053   1.903       .  S
O2048      C2058   1.265       .  A
O2050      V2054   1.896       .  S
O2050      C2057   1.264       .  A
O2051      V2054   1.896       .  S
O2051      C2056   1.264       .  A
O2052      C2055   1.265       .  A
C2055      C2581   1.476       .  S
C2056      C2592   1.479       .  S
C2057      C2567   1.486       .  S
C2058      C2550   1.471       .  S
O2059      V2067   1.903       .  S
O2059      C2069   1.264       .  A
O2060      V2067   1.900       .  S
O2060      C2070   1.265       .  A
O2061      V2067   1.892       .  S
O2061      C2071   1.262       .  A
O2062      V2067   1.893       .  S
O2062      C2072   1.264       .  A
O2063      V2068   1.890       .  S
O2063      C2072   1.262       .  A
O2064      V2068   1.891       .  S
O2064      C2071   1.264       .  A
O2065      V2068   1.898       .  S
O2065      C2070   1.264       .  A
O2066      V2068   1.894       .  S
O2066      C2069   1.263       .  A
V2067      V2068   2.086       .  T
C2069      C2525   1.472       .  S
C2070      C2536   1.484       .  S
C2071      C2595   1.477       .  S
C2072      C2578   1.473       .  S
O2074      V2081   1.895       .  S
O2075      V2081   1.890       .  S
O2075      C2085   1.263       .  A
O2076      C2086   1.263       .  A
O2078      V2082   1.900       .  S
O2080      V2082   1.896       .  S
O2080      C2083   1.263   1_655  A
C2084      C2651   1.485       .  S
C2085      C2494   1.479       .  S
C2086      C2508   1.472       .  S
O2087      V2095   1.900       .  S
O2088      V2095   1.901       .  S
O2089      V2095   1.888       .  S
O2089      C2099   1.262   1_655  A
O2090      V2095   1.894       .  S
O2090      C2100   1.264   1_655  A
O2091      V2096   1.898       .  S
O2092      V2096   1.899       .  S
O2093      V2096   1.901       .  S
O2093      C2098   1.265       .  A
O2094      V2096   1.896       .  S
O2094      C2097   1.264       .  A
C2097      C2623   1.484       .  S
C2098      C2466   1.477       .  S
C2099      C2511   1.471       .  S
C2100      C2497   1.480       .  S
O2101      V2109   1.896   1_565  S
O2101      C2111   1.265       .  A
O2102      C2112   1.265       .  A
O2103      V2109   1.889       .  S
O2104      C2114   1.262       .  A
O2106      V2110   1.910       .  S
O2106      C2113   1.268       .  A
O2107      V2110   1.891       .  S
O2107      C2112   1.262       .  A
O2108      C2111   1.262       .  A
C2111      C2441   1.475       .  S
C2112      C2452   1.479       .  S
C2114      C2564   1.487       .  S
O2115      V2123   1.893       .  S
O2115      C2125   1.263       .  A
O2116      V2123   1.899       .  S
O2116      C2126   1.264       .  A
O2117      V2123   1.895       .  S
O2117      C2127   1.264       .  A
O2118      V2123   1.894       .  S
O2118      C2128   1.263       .  A
O2119      V2124   1.894       .  S
O2119      C2128   1.264       .  A
O2120      V2124   1.890       .  S
O2120      C2127   1.262       .  A
O2121      V2124   1.900       .  S
O2121      C2126   1.265       .  A
O2122      V2124   1.900       .  S
O2122      C2125   1.265       .  A
V2123      V2124   2.086       .  T
C2125      C2539   1.479       .  S
C2126      C2410   1.475       .  S
C2127      C2455   1.475       .  S
C2128      C2438   1.474       .  S
O2130      V2137   1.898       .  S
O2131      V2137   1.902       .  S
O2131      C2141   1.265       .  A
O2132      C2142   1.266       .  A
O2134      V2138   1.888       .  S
O2136      V2138   1.904       .  S
O2136      C2139   1.266   1_565  A
C2139      C2371   1.488       .  S
C2140      C2637   1.468       .  S
C2141      C2385   1.471       .  S
C2142      C2396   1.481       .  S
O2144      V2151   1.901       .  S
O2144      C2154   1.265       .  A
O2145      V2151   1.892       .  S
O2145      C2155   1.263       .  A
O2146      C2156   1.263       .  A
O2147      C2156   1.264       .  A
O2148      V2152   1.892       .  S
O2148      C2155   1.264       .  A
O2150      V2152   1.898       .  S
O2150      C2153   1.264       .  A
V2151      V2152   2.085       .  T
C2153      C2326   1.489       .  S
C2154      C2606   1.474       .  S
C2155      C2357   1.475       .  S
C2156      C2340   1.482       .  S
O2157      V2165   1.902       .  S
O2158      V2165   1.904       .  S
O2159      V2165   1.902       .  S
O2159      C2169   1.265   1_565  A
O2160      V2165   1.900       .  S
O2160      C2170   1.263       .  A
O2161      V2166   1.897       .  S
O2162      V2166   1.897       .  S
O2163      V2166   1.889       .  S
O2163      C2168   1.262       .  A
O2164      V2166   1.890       .  S
O2164      C2167   1.262       .  A
C2167      C2399   1.479       .  S
C2168      C2382   1.473       .  S
C2169      C2312   1.488       .  S
C2170      C2553   1.479       .  S
O2171      V2179   1.896       .  S
O2171      C2181   1.264       .  A
O2172      V2179   1.900       .  S
O2172      C2182   1.264       .  A
O2173      V2179   1.909       .  S
O2173      C2183   1.267       .  A
O2174      V2179   1.906       .  S
O2174      C2184   1.266       .  A
O2175      V2180   1.898       .  S
O2175      C2184   1.264       .  A
O2176      V2180   1.899       .  S
O2176      C2183   1.264       .  A
O2177      V2180   1.891       .  S
O2177      C2182   1.263       .  A
O2178      V2180   1.892       .  S
O2178      C2181   1.263       .  A
V2179      V2180   2.085       .  T
C2181      C2354   1.476       .  S
C2182      C2343   1.482       .  S
C2183      C2301   1.493       .  S
C2184      C2522   1.479       .  S
O2186      V2193   1.888       .  S
O2187      V2193   1.897       .  S
O2187      C2197   1.266   1_565  A
O2188      C2198   1.264   1_565  A
O2190      V2194   1.892       .  S
O2192      V2194   1.907       .  S
O2192      C2195   1.267       .  A
C2195      C2483   1.483       .  S
C2196      C2368   1.487       .  S
C2197      C2284   1.481       .  S
C2198      C2270   1.474       .  S
O2200      V2207   1.906       .  S
O2200      C2210   1.266       .  A
O2201      V2207   1.897   1_655  S
O2201      C2211   1.264       .  A
O2202      C2212   1.264       .  A
O2203      C2212   1.263       .  A
O2204      V2208   1.895   1_655  S
O2204      C2211   1.264       .  A
O2206      V2208   1.893       .  S
O2206      C2209   1.265       .  A
V2207      V2208   2.086       .  T
C2211      C2242   1.478       .  S
C2212      C2256   1.477       .  S
O2213      V2221   1.895       .  S
O2214      V2221   1.893       .  S
O2215      V2221   1.894       .  S
O2215      C2225   1.263   1_565  A
O2216      V2221   1.895       .  S
O2216      C2226   1.265   1_565  A
O2217      V2222   1.904       .  S
O2218      V2222   1.905       .  S
O2219      V2222   1.893       .  S
O2219      C2224   1.263       .  A
O2220      V2222   1.897       .  S
O2220      C2223   1.266       .  A
C2223      C2287   1.482       .  S
C2224      C2273   1.474       .  S
C2225      C2427   1.470       .  S
C2226      C2315   1.488       .  S
O2227      V2235   1.910       .  S
O2227      C2237   1.267       .  A
O2228      V2235   1.908       .  S
O2228      C2238   1.266       .  A
O2229      V2235   1.893       .  S
O2229      C2239   1.263       .  A
O2230      V2235   1.891       .  S
O2230      C2240   1.263       .  A
O2231      V2236   1.902       .  S
O2231      C2240   1.265       .  A
O2232      V2236   1.899       .  S
O2232      C2239   1.264       .  A
O2233      V2236   1.893       .  S
O2233      C2238   1.263       .  A
O2234      V2236   1.898       .  S
O2234      C2237   1.266       .  A
V2235      V2236   2.085       .  T
C2237      C2298   1.493       .  S
C2238      C2413   1.476       .  S
C2239      C2259   1.476       .  S
C2240      C2245   1.478       .  S
C2241      C2242   1.404       .  A
C2241      C2246   1.399       .  A
C2241      H2248   1.087       .  S
C2242      C2243   1.412       .  A
C2243      C2244   1.398       .  A
C2243      N2250   1.429       .  S
C2244      C2245   1.404       .  A
C2244      H2249   1.087       .  S
C2245      C2246   1.411       .  A
C2246      N2247   1.429       .  S
N2247      O2251   1.262       .  A
N2247      O2252   1.262       .  A
N2250      O2254   1.262       .  A
N2250      O2253   1.262       .  A
C2255      C2256   1.404       .  A
C2255      C2260   1.397       .  A
C2255      H2262   1.087       .  S
C2256      C2257   1.411       .  A
C2257      C2258   1.398       .  A
C2257      N2264   1.429       .  S
C2258      C2259   1.404       .  A
C2258      H2263   1.087       .  S
C2259      C2260   1.410       .  A
C2260      N2261   1.429       .  S
N2261      O2265   1.262       .  A
N2261      O2266   1.262       .  A
N2264      O2268   1.262       .  A
N2264      O2267   1.262       .  A
C2269      C2274   1.396       .  A
C2269      H2276   1.087       .  S
C2270      C2271   1.410   1_545  A
C2271      C2272   1.397       .  A
C2271      N2278   1.429       .  S
C2272      H2277   1.087       .  S
C2273      C2274   1.412       .  A
C2274      N2275   1.429       .  S
N2275      O2279   1.262       .  A
N2275      O2280   1.262       .  A
N2278      O2282   1.262       .  A
N2278      O2281   1.262       .  A
C2283      C2284   1.404   1_565  A
C2283      C2288   1.398       .  A
C2283      H2290   1.087       .  S
C2285      C2286   1.398       .  A
C2285      N2292   1.429       .  S
C2286      C2287   1.404       .  A
C2286      H2291   1.086       .  S
C2288      N2289   1.429       .  S
N2289      O2293   1.262       .  A
N2289      O2294   1.262       .  A
N2292      O2296   1.262       .  A
N2292      O2295   1.262       .  A
C2297      C2298   1.405       .  A
C2297      C2302   1.400       .  A
C2297      H2304   1.086       .  S
C2298      C2299   1.415       .  A
C2299      C2300   1.405       .  A
C2299      N2306   1.429       .  S
C2300      C2301   1.407       .  A
C2300      H2305   1.086       .  S
C2301      C2302   1.415       .  A
C2302      N2303   1.429       .  S
N2303      O2307   1.262       .  A
N2303      O2308   1.262       .  A
N2306      O2310   1.262       .  A
N2306      O2309   1.262       .  A
C2311      C2316   1.401       .  A
C2311      H2318   1.086       .  S
C2312      C2313   1.414   1_545  A
C2313      C2314   1.399       .  A
C2313      N2320   1.429       .  S
C2314      C2315   1.406   1_565  A
C2314      H2319   1.086       .  S
C2316      N2317   1.429       .  S
N2317      O2321   1.262       .  A
N2317      O2322   1.262       .  A
N2320      O2323   1.262       .  A
C2325      C2330   1.403   1_655  A
C2325      H2332   1.086       .  S
C2326      C2327   1.414       .  A
C2327      C2328   1.398       .  A
C2327      N2334   1.429       .  S
C2328      C2329   1.405       .  A
C2328      H2333   1.086       .  S
C2330      N2331   1.429       .  S
N2331      O2335   1.262   1_455  A
N2331      O2336   1.262       .  A
N2334      O2338   1.262       .  A
N2334      O2337   1.262       .  A
C2339      C2340   1.405       .  A
C2339      C2344   1.397       .  A
C2339      H2346   1.086       .  S
C2340      C2341   1.413       .  A
C2341      C2342   1.398       .  A
C2341      N2348   1.429       .  S
C2342      C2343   1.406       .  A
C2342      H2347   1.087       .  S
C2343      C2344   1.413       .  A
C2344      N2345   1.429       .  S
N2345      O2349   1.262       .  A
N2345      O2350   1.262       .  A
N2348      O2352   1.262       .  A
N2348      O2351   1.262       .  A
C2353      C2354   1.405       .  A
C2353      C2358   1.400       .  A
C2353      H2360   1.084       .  S
C2354      C2355   1.411       .  A
C2355      C2356   1.395       .  A
C2355      N2362   1.429       .  S
C2356      C2357   1.402       .  A
C2356      H2361   1.084       .  S
C2357      C2358   1.412       .  A
C2358      N2359   1.431       .  S
N2359      O2363   1.262       .  A
N2359      O2364   1.262       .  A
N2362      O2366   1.262       .  A
N2362      O2365   1.262       .  A
C2367      C2372   1.398       .  A
C2367      H2374   1.086       .  S
C2369      C2370   1.402       .  A
C2369      N2376   1.429   1_655  S
C2370      H2375   1.086   1_655  S
C2372      N2373   1.429       .  S
N2373      O2377   1.262       .  A
N2376      O2380   1.262   1_455  A
C2381      C2382   1.404       .  A
C2381      C2386   1.398       .  A
C2381      H2388   1.087       .  S
C2383      C2384   1.397       .  A
C2383      N2390   1.429       .  S
C2384      H2389   1.087       .  S
C2385      C2386   1.409       .  A
C2386      N2387   1.429       .  S
N2387      O2391   1.262       .  A
N2387      O2392   1.262       .  A
N2390      O2394   1.262       .  A
N2390      O2393   1.262       .  A
C2395      C2396   1.403       .  A
C2395      C2400   1.398       .  A
C2395      H2402   1.084       .  S
C2397      C2398   1.400       .  A
C2397      N2404   1.429       .  S
C2398      H2403   1.084       .  S
C2399      C2400   1.413       .  A
C2400      N2401   1.429       .  S
N2401      O2406   1.262       .  A
N2404      O2407   1.262       .  A
C2409      C2410   1.403       .  A
C2409      C2414   1.401       .  A
C2409      H2416   1.087       .  S
C2410      C2411   1.409       .  A
C2411      C2412   1.399       .  A
C2411      N2418   1.429       .  S
C2412      C2413   1.404       .  A
C2412      H2417   1.087       .  S
C2413      C2414   1.410       .  A
C2414      N2415   1.429       .  S
N2415      O2419   1.262       .  A
N2415      O2420   1.262       .  A
N2418      O2422   1.262       .  A
N2418      O2421   1.262       .  A
C2423      C2428   1.403       .  A
C2423      H2430   1.086       .  S
C2424      C2425   1.415   1_545  A
C2425      C2426   1.397       .  A
C2425      N2432   1.429       .  S
C2426      C2427   1.398   1_565  A
C2426      H2431   1.087       .  S
C2428      N2429   1.429       .  S
N2429      O2433   1.262       .  A
N2429      O2434   1.262       .  A
N2432      O2436   1.262       .  A
N2432      O2435   1.262       .  A
C2437      C2438   1.402       .  A
C2437      C2442   1.398       .  A
C2437      H2444   1.087       .  S
C2438      C2439   1.411       .  A
C2439      C2440   1.396       .  A
C2439      N2446   1.429       .  S
C2440      C2441   1.403       .  A
C2440      H2445   1.087       .  S
C2441      C2442   1.413       .  A
C2442      N2443   1.429       .  S
N2443      O2447   1.262       .  A
N2443      O2448   1.262       .  A
N2446      O2450   1.262       .  A
N2446      O2449   1.262       .  A
C2451      C2452   1.405       .  A
C2451      C2456   1.399       .  A
C2451      H2458   1.084       .  S
C2452      C2453   1.414       .  A
C2453      C2454   1.396       .  A
C2453      N2460   1.429       .  S
C2454      C2455   1.402       .  A
C2454      H2459   1.084       .  S
C2455      C2456   1.411       .  A
C2456      N2457   1.430       .  S
N2457      O2461   1.262       .  A
N2457      O2462   1.262       .  A
N2460      O2464   1.262       .  A
N2460      O2463   1.262       .  A
C2465      C2466   1.403       .  A
C2465      C2470   1.401       .  A
C2465      H2472   1.087       .  S
C2467      C2468   1.400       .  A
C2467      N2474   1.429       .  S
C2468      H2473   1.087       .  S
C2469      C2470   1.412       .  A
C2470      N2471   1.429       .  S
N2471      O2475   1.262       .  A
N2471      O2476   1.262       .  A
N2474      O2478   1.262       .  A
N2474      O2477   1.262       .  A
C2479      C2480   1.398   1_655  A
C2479      C2484   1.398       .  A
C2479      H2486   1.088       .  S
C2481      C2482   1.397       .  A
C2481      N2488   1.429       .  S
C2482      H2487   1.087       .  S
C2484      N2485   1.428       .  S
N2485      O2489   1.262       .  A
N2485      O2490   1.262   1_655  A
N2488      O2492   1.262       .  A
N2488      O2491   1.261       .  A
C2493      C2494   1.404       .  A
C2493      C2498   1.397       .  A
C2493      H2500   1.087       .  S
C2495      C2496   1.399       .  A
C2495      N2502   1.429       .  S
C2496      C2497   1.405   1_655  A
C2496      H2501   1.087       .  S
C2498      N2499   1.429       .  S
N2499      O2503   1.262       .  A
N2502      O2506   1.262       .  A
C2507      C2508   1.404       .  A
C2507      C2512   1.398       .  A
C2507      H2514   1.087       .  S
C2509      C2510   1.396       .  A
C2509      N2516   1.429       .  S
C2510      C2511   1.402   1_655  A
C2510      H2515   1.087       .  S
C2512      N2513   1.429       .  S
N2513      O2517   1.262       .  A
N2513      O2518   1.262       .  A
N2516      O2519   1.262       .  A
C2521      C2522   1.406       .  A
C2521      C2526   1.405       .  A
C2521      H2528   1.084       .  S
C2522      C2523   1.411       .  A
C2523      C2524   1.397       .  A
C2523      N2530   1.429       .  S
C2524      C2525   1.400       .  A
C2524      H2529   1.085       .  S
C2525      C2526   1.410       .  A
C2526      N2527   1.430       .  S
N2527      O2531   1.262       .  A
N2527      O2532   1.262       .  A
N2530      O2534   1.262       .  A
N2530      O2533   1.262       .  A
C2535      C2536   1.407       .  A
C2535      C2540   1.401   1_554  A
C2535      H2542   1.084       .  S
C2536      C2537   1.413       .  A
C2537      C2538   1.398   1_554  A
C2537      N2544   1.429       .  S
C2538      C2539   1.403       .  A
C2538      H2543   1.084       .  S
C2539      C2540   1.412       .  A
C2540      N2541   1.430       .  S
N2541      O2545   1.262       .  A
N2541      O2546   1.262       .  A
N2544      O2548   1.262       .  A
N2544      O2547   1.262       .  A
C2549      C2554   1.403       .  A
C2549      H2556   1.084       .  S
C2550      C2551   1.407       .  A
C2551      C2552   1.396       .  A
C2551      N2558   1.427       .  S
C2552      H2557   1.084       .  S
C2553      C2554   1.415       .  A
C2554      N2555   1.429       .  S
N2555      O2559   1.262       .  A
N2558      O2562   1.262       .  A
C2563      C2564   1.406       .  A
C2563      C2568   1.397   1_556  A
C2563      H2570   1.086       .  S
C2565      C2566   1.403   1_556  A
C2565      N2572   1.428       .  S
C2566      H2571   1.086       .  S
C2567      C2568   1.412       .  A
C2568      N2569   1.429       .  S
N2569      O2573   1.262       .  A
N2569      O2574   1.262       .  A
N2572      O2576   1.262   1_545  A
N2572      O2575   1.262       .  A
C2577      C2578   1.401       .  A
C2577      C2582   1.395       .  A
C2577      H2584   1.087       .  S
C2578      C2579   1.411       .  A
C2579      C2580   1.396       .  A
C2579      N2586   1.429       .  S
C2580      C2581   1.403       .  A
C2580      H2585   1.087       .  S
C2581      C2582   1.414       .  A
C2582      N2583   1.429       .  S
N2583      O2587   1.262       .  A
N2583      O2588   1.262       .  A
N2586      O2590   1.262       .  A
N2586      O2589   1.262       .  A
C2591      C2592   1.406       .  A
C2591      C2596   1.398       .  A
C2591      H2598   1.084       .  S
C2592      C2593   1.412       .  A
C2593      C2594   1.395       .  A
C2593      N2600   1.429       .  S
C2594      C2595   1.403       .  A
C2594      H2599   1.084       .  S
C2595      C2596   1.412       .  A
C2596      N2597   1.430       .  S
N2597      O2601   1.262       .  A
N2597      O2602   1.262       .  A
N2600      O2604   1.261       .  A
N2600      O2603   1.262       .  A
C2605      C2610   1.401       .  A
C2605      H2612   1.087       .  S
C2606      C2607   1.410       .  A
C2607      C2608   1.398       .  A
C2607      N2614   1.429       .  S
C2608      C2609   1.401       .  A
C2608      H2613   1.087       .  S
C2610      N2611   1.429       .  S
N2611      O2615   1.262       .  A
N2611      O2616   1.262       .  A
N2614      O2618   1.262       .  A
N2614      O2617   1.262       .  A
C2619      C2624   1.398   1_554  A
C2619      H2626   1.086       .  S
C2620      C2621   1.414       .  A
C2621      C2622   1.400   1_554  A
C2621      N2628   1.429       .  S
C2622      C2623   1.406       .  A
C2622      H2627   1.086       .  S
C2624      N2625   1.429       .  S
N2625      O2629   1.262       .  A
N2625      O2630   1.262       .  A
N2628      O2632   1.262       .  A
N2628      O2631   1.262       .  A
C2633      C2638   1.402       .  A
C2633      H2640   1.086       .  S
C2634      C2635   1.417   1_655  A
C2635      C2636   1.400       .  A
C2635      N2642   1.428       .  S
C2636      C2637   1.398   1_455  A
C2636      H2641   1.087       .  S
C2638      N2639   1.429       .  S
N2639      O2643   1.262       .  A
N2639      O2644   1.262       .  A
N2642      O2646   1.262   1_545  A
N2642      O2645   1.262       .  A
C2647      C2648   1.406   1_565  A
C2647      C2652   1.402   1_554  A
C2647      H2654   1.087       .  S
C2649      C2650   1.399   1_554  A
C2649      N2656   1.429       .  S
C2650      H2655   1.087       .  S
C2651      C2652   1.413       .  A
C2652      N2653   1.429       .  S
N2653      O2657   1.262       .  A
N2653      O2658   1.262       .  A
N2656      O2660   1.262       .  A
N2656      O2659   1.262       .  A
C2661      C2662   1.405       .  A
C2661      C2666   1.397       .  A
C2661      H2668   1.087       .  S
C2663      C2664   1.395       .  A
C2663      N2670   1.429       .  S
C2664      C2665   1.404       .  A
C2664      H2669   1.087       .  S
C2666      N2667   1.429       .  S
N2667      O2671   1.262       .  A
N2667      O2672   1.262       .  A
N2670      O2674   1.262       .  A
N2670      O2673   1.262       .  A
C2675      C2680   1.396       .  A
C2675      H2682   1.087       .  S
C2676      C2677   1.413       .  A
C2677      C2678   1.394       .  A
C2677      N2684   1.429       .  S
C2678      H2683   1.087       .  S
C2679      C2680   1.412       .  A
C2680      N2681   1.429       .  S
N2681      O2685   1.262       .  A
N2681      O2686   1.262       .  A
N2684      O2688   1.262       .  A
N2684      O2687   1.262       .  A
