geometry optimzed in LAMMPS
_audit_creation_date              2020-11-30 
_audit_creation_method            'lammps2cif' 
_symmetry_space_group_name_H-M    'P1' 
_symmetry_Int_Tables_number       1 
_symmetry_cell_setting            triclinic 
loop_ 
_symmetry_equiv_pos_as_xyz 
  x,y,z 
_cell_length_a                    28.36255558 
_cell_length_b                    26.292306456137023 
_cell_length_c                    27.781910187381815 
_cell_angle_alpha                 90.2358668589602 
_cell_angle_beta                  89.37349891419214 
_cell_angle_gamma                 113.02835283919818 
loop_ 
_atom_site_label 
_atom_site_type_symbol 
_atom_site_fract_x 
_atom_site_fract_y 
_atom_site_fract_z 
_atom_site_charge 
Fe1        Fe  0.35750044  0.26948055  0.49786665     1.65800
Fe2        Fe  0.26845856  0.13708122  0.49998116     1.71700
Fe3        Fe  0.39649033  0.16088922  0.49744797     1.54400
O4          O  0.44047116  0.21712780  0.44468640    -0.80800
O5          O  0.27902255  0.09180952  0.55449329    -0.79100
O6          O  0.40923535  0.28259264  0.44019204    -0.83300
O7          O  0.41475905  0.28502862  0.54967084    -0.78200
O8          O  0.36320877  0.10594958  0.44189821    -0.80000
O9          O  0.24686784  0.18104277  0.55050831    -0.82700
C10         C  0.43870763  0.25864248  0.56968869     0.98100
C11         C  0.43913297  0.26015610  0.42492898     1.05500
O12         O  0.34092814  0.18913178  0.49844494    -1.11700
O13         O  0.24922945  0.17503117  0.44369288    -0.74100
O14         O  0.30181268  0.26384370  0.44602851    -0.77600
O15         O  0.43504874  0.21143122  0.55483812    -0.78300
C16         C  0.26400628  0.22398192  0.42799513     0.97000
O17         O  0.30774509  0.26554524  0.55581005    -0.76300
O18         O  0.27946607  0.08443910  0.45187353    -0.81400
C19         C  0.31532233  0.07807533  0.56612330     0.99600
C20         C  0.31663334  0.07736387  0.43197440     1.05500
O21         O  0.36014203  0.09972248  0.54806813    -0.77100
C22         C  0.26591786  0.22800696  0.57036649     1.03800
Fe23       Fe  0.22580997  0.37030972  0.49938635     1.65800
Fe24       Fe  0.13462896  0.42597237  0.50104443     1.73200
Fe25       Fe  0.09884632  0.28431841  0.50149860     1.54400
O26         O  0.13343411  0.25492768  0.44929943    -0.80800
O27         O  0.07887601  0.39435252  0.55465312    -0.79100
O28         O  0.21583133  0.31195223  0.44728831    -0.83300
O29         O  0.21627597  0.31157847  0.55083369    -0.78200
O30         O  0.05685999  0.30109118  0.44954917    -0.80000
O31         O  0.18722525  0.46655128  0.55550468    -0.82700
C32         C  0.17914479  0.27044608  0.56769467     0.98100
C33         C  0.17873769  0.26922186  0.43335398     1.05500
O34         O  0.15292875  0.36017347  0.50065807    -1.11700
O35         O  0.18679123  0.46621395  0.44550196    -0.74100
O36         O  0.24514339  0.42915516  0.44575560    -0.77600
O37         O  0.13316402  0.25719394  0.55482499    -0.78300
C38         C  0.22712664  0.46229358  0.42851371     0.97000
O39         O  0.24521181  0.42886060  0.55325798    -0.76300
O40         O  0.07928995  0.39261944  0.44837198    -0.81400
C41         C  0.05087513  0.34553247  0.56800678     0.99600
C42         C  0.05224397  0.34394186  0.43386435     1.05500
O43         O  0.05620702  0.30298026  0.55219045    -0.77100
C44         C  0.22753369  0.46224308  0.57134359     1.03800
N45         N  0.23536107  0.23343636  0.38896663    -0.02600
C46         C  0.23276976  0.20960737  0.34527782     0.00000
C47         C  0.18437384  0.19531598  0.32599401    -0.22900
C48         C  0.15654095  0.21215510  0.35833573    -0.23100
C49         C  0.18904378  0.23582131  0.39599252    -0.00100
H50         H  0.17278888  0.18137675  0.28964346     0.13600
H51         H  0.11868388  0.21183753  0.35294768     0.13700
N52         N  0.23787089  0.23754143  0.61059594    -0.02600
C53         C  0.23534419  0.21222775  0.65351204     0.00000
C54         C  0.18602324  0.19364692  0.67240739    -0.22900
C55         C  0.15755523  0.21003264  0.64118360    -0.23100
C56         C  0.19063239  0.23760315  0.60448419    -0.00100
H57         H  0.17378668  0.17697109  0.70808138     0.13600
H58         H  0.11851712  0.20637608  0.64669381     0.13700
N59         N  0.25584073  0.49685920  0.61037525    -0.02600
C60         C  0.25647648  0.47662429  0.65500961     0.00000
C61         C  0.30523366  0.00052685  0.67414353    -0.22900
C62         C  0.33529613  0.03820291  0.64103494    -0.23100
C63         C  0.30373744  0.03542684  0.60295839    -0.00100
H64         H  0.31583882  0.99716932  0.71095292     0.13600
H65         H  0.37389585  0.06829079  0.64643853     0.13700
N66         N  0.25494592  0.49707168  0.38902393    -0.02600
C67         C  0.25208105  0.47911018  0.34302233     0.00000
C68         C  0.29898174  0.00518690  0.31988832    -0.22900
C69         C  0.33153443  0.04108338  0.35238112    -0.23100
C70         C  0.30325031  0.03554750  0.39408823    -0.00100
H71         H  0.30653832  0.00415351  0.28168977     0.13600
H72         H  0.36928049  0.07214553  0.34463481     0.13700
N73         N  0.47531952  0.28750049  0.38653008    -0.02600
C74         C  0.46313873  0.29006662  0.33942879     0.00000
C75         C  0.99411211  0.34097900  0.32006320    -0.22900
C76         C  0.02750030  0.36984118  0.35504620    -0.23100
C77         C  0.01579877  0.33594640  0.39476789    -0.00100
H78         H  0.99694617  0.35331024  0.28267419     0.13600
H79         H  0.06027646  0.40845278  0.35025037     0.13700
N80         N  0.47244734  0.28475490  0.60937982    -0.02600
C81         C  0.45804497  0.27963973  0.65649858     0.00000
C82         C  0.98396614  0.32978326  0.67951166    -0.22900
C83         C  0.01779977  0.36480592  0.64676806    -0.23100
C84         C  0.51061798  0.33539247  0.60450808    -0.00100
H85         H  0.98550480  0.33657417  0.71804499     0.13600
H86         H  0.04905097  0.40356849  0.65497991     0.13700
Fe87       Fe  0.03143375  0.04975378  0.00137521     1.65800
Fe88       Fe  0.40213614  0.47579217  0.99981918     1.73200
Fe89       Fe  0.48452571  0.40803265  0.00064027     1.54400
O90         O  0.03837966  0.43382874  0.94650109    -0.80800
O91         O  0.37739389  0.41587502  0.05299906    -0.79100
O92         O  0.07062664  0.02594440  0.94803026    -0.83300
O93         O  0.06575084  0.02616247  0.05777336    -0.78200
O94         O  0.43125221  0.37156301  0.94850860    -0.80000
O95         O  0.41525062  0.03229510  0.05544193    -0.82700
C96         C  0.06475176  0.48036183  0.07310674     0.98100
C97         C  0.06779730  0.48034271  0.93002614     1.05500
O98         O  0.47264733  0.47782090  0.00061015    -1.11700
O99         O  0.41835974  0.03583901  0.94652739    -0.74100
O100        O  0.00319512  0.08053111  0.94494167    -0.77600
O101        O  0.03914486  0.43458426  0.05323847    -0.78300
C102        C  0.45918394  0.07084120  0.92785176     0.97000
O103        O  0.99927561  0.08259507  0.05472531    -0.76300
O104        O  0.38128431  0.41914436  0.94411771    -0.81400
C105        C  0.39375750  0.38152648  0.07071028     0.99600
C106        C  0.39582858  0.38191071  0.92922730     1.05500
O107        O  0.43223925  0.37388068  0.05449930    -0.77100
C108        C  0.45472272  0.07016923  0.07260549     1.03800
C109        C  0.42566768  0.17659697  0.74730048     0.21200
C110        C  0.39845571  0.14915264  0.78860089    -0.38700
C111        C  0.42622139  0.13159132  0.82171558     0.20200
C112        C  0.47736608  0.14132775  0.81444714     0.22800
C113        C  0.00440861  0.16826988  0.77304450    -0.39200
C114        C  0.47648324  0.18514869  0.73972233     0.21600
N115        N  0.41007473  0.20333889  0.71369836    -0.32500
C116        C  0.45106028  0.22935301  0.68454465    -0.10000
C117        C  0.49294761  0.21800577  0.69936748    -0.28800
N118        N  0.99565336  0.12250333  0.85185845    -0.45400
C119        C  0.45586375  0.09992136  0.88319683    -0.04700
C120        C  0.41175108  0.10463419  0.86549284    -0.22100
H121        H  0.35899809  0.14334756  0.79515578     0.19700
H122        H  0.04472277  0.17700866  0.76785987     0.18500
H123        H  0.03207360  0.23746585  0.68633959     0.14800
H124        H  0.37421157  0.09025164  0.88233822     0.14700
H125        H  0.37527521  0.20778534  0.71308081     0.32800
H126        H  0.03278844  0.12394133  0.85542119     0.35600
C127        C  0.44466172  0.12238547  0.19041917     0.21200
C128        C  0.94798584  0.12664387  0.24113730    -0.38700
C129        C  0.43859122  0.17092486  0.26200597     0.20200
C130        C  0.42668458  0.20756693  0.23409038     0.22800
C131        C  0.42363325  0.20345102  0.18368041    -0.39200
C132        C  0.43297803  0.15957788  0.16297255     0.21600
N133        N  0.95415212  0.08592124  0.16164178    -0.32500
C134        C  0.44848893  0.10019285  0.11572725    -0.10000
C135        C  0.43520363  0.14588884  0.11513951    -0.28800
N136        N  0.42659164  0.25014083  0.26074354    -0.45400
C137        C  0.43945586  0.24229053  0.30622997    -0.04700
C138        C  0.94626442  0.19226507  0.30861409    -0.22100
H139        H  0.95918805  0.09898456  0.26252629     0.19700
H140        H  0.41664718  0.23379525  0.16192742     0.18500
H141        H  0.42863902  0.16664972  0.08392906     0.14800
H142        H  0.96178804  0.17758575  0.33840633     0.14700
H143        H  0.96420860  0.05351546  0.17243873     0.32800
H144        H  0.42438413  0.28604205  0.24710496     0.35600
C145        C  0.15763723  0.48433110  0.26521865     0.21200
C146        C  0.13761690  0.51572461  0.23762363    -0.38700
C147        C  0.12130564  0.49553051  0.19133332     0.20200
C148        C  0.12372764  0.44709973  0.17423442     0.22800
C149        C  0.14430325  0.41606251  0.20153953    -0.39200
C150        C  0.16163556  0.43687743  0.24747943     0.21600
N151        N  0.18295780  0.49953806  0.30680889    -0.32500
C152        C  0.20495517  0.46295261  0.31485950    -0.10000
C153        C  0.19176404  0.42268620  0.27896287    -0.28800
N154        N  0.10565490  0.43666615  0.12922457    -0.45400
C155        C  0.09228436  0.47915086  0.11730312    -0.04700
C156        C  0.10172461  0.51690128  0.15503588    -0.22100
H157        H  0.13686154  0.05427298  0.25052786     0.19700
H158        H  0.14866181  0.37978766  0.18720323     0.18500
H159        H  0.20794760  0.39207088  0.27306932     0.14800
H160        H  0.09344452  0.05370099  0.15642155     0.14700
H161        H  0.19097653  0.03688700  0.32482475     0.32800
H162        H  0.10208786  0.40242753  0.10808016     0.35600
C163        C  0.13484428  0.45072904  0.83178854     0.21200
C164        C  0.15876192  0.42134466  0.80589783    -0.38700
C165        C  0.17369081  0.43930508  0.75858643     0.20200
C166        C  0.16469028  0.48267473  0.73840741     0.22800
C167        C  0.14159557  0.51272341  0.76462325    -0.39200
C168        C  0.12739004  0.49529454  0.81218576     0.21600
N169        N  0.11656238  0.44129599  0.87710340    -0.32500
C170        C  0.09806083  0.48064232  0.88673068    -0.10000
C171        C  0.10439055  0.51538097  0.84723346    -0.28800
N172        N  0.18712791  0.49533428  0.69485034    -0.45400
C173        C  0.21207219  0.46116908  0.68775410    -0.04700
C174        C  0.20399041  0.42509888  0.72655073    -0.22100
H175        H  0.16649854  0.38796967  0.82189007     0.19700
H176        H  0.13639260  0.54803992  0.74950738     0.18500
H177        H  0.09143281  0.54883332  0.84380713     0.14800
H178        H  0.22288915  0.39713525  0.73304533     0.14700
H179        H  0.11575100  0.40938110  0.89980619     0.32800
H180        H  0.19082563  0.52976004  0.67408043     0.35600
C181        C  0.35912221  0.33584880  0.81022139     0.21200
C182        C  0.35552353  0.34131435  0.76048898    -0.38700
C183        C  0.33034078  0.29203731  0.73534010     0.20200
C184        C  0.30928903  0.24125201  0.75819073     0.22800
C185        C  0.31462936  0.23555889  0.80782187    -0.39200
C186        C  0.34063093  0.28487027  0.83288316     0.21600
N187        N  0.37851552  0.37677306  0.84231268    -0.32500
C188        C  0.37330478  0.35166913  0.88556001    -0.10000
C189        C  0.35042981  0.29434370  0.88130085    -0.28800
N190        N  0.27823203  0.20278221  0.72822169    -0.45400
C191        C  0.27906715  0.22946779  0.68630782    -0.04700
C192        C  0.31276977  0.28468878  0.68896443    -0.22100
H193        H  0.36882605  0.38128971  0.74303782     0.19700
H194        H  0.29742045  0.19609184  0.82596059     0.18500
H195        H  0.34201520  0.26394692  0.90973316     0.14800
H196        H  0.31644873  0.31717207  0.66354405     0.14700
H197        H  0.39556496  0.41913220  0.83518343     0.32800
H198        H  0.25304168  0.16286331  0.73767754     0.35600
C199        C  0.35638523  0.33411588  0.18944339     0.21200
C200        C  0.35415777  0.33841992  0.23953905    -0.38700
C201        C  0.32905362  0.28858026  0.26415625     0.20200
C202        C  0.30722875  0.23834073  0.24058457     0.22800
C203        C  0.31061935  0.23395991  0.19045754    -0.39200
C204        C  0.33617980  0.28376853  0.16588401     0.21600
N205        N  0.37640418  0.37562146  0.15786962    -0.32500
C206        C  0.36944525  0.35139121  0.11403222    -0.10000
C207        C  0.34498145  0.29416479  0.11739190    -0.28800
N208        N  0.27620457  0.19945626  0.27054978    -0.45400
C209        C  0.27745912  0.22542592  0.31307107    -0.04700
C210        C  0.31208114  0.28034208  0.31098181    -0.22100
H211        H  0.36857904  0.37794000  0.25779909     0.19700
H212        H  0.29242241  0.19504069  0.17176276     0.18500
H213        H  0.33576732  0.26432561  0.08840409     0.14800
H214        H  0.31608899  0.31246440  0.33706376     0.14700
H215        H  0.39535221  0.41763451  0.16565576     0.32800
H216        H  0.24992897  0.16030917  0.26062299     0.35600
Fe217      Fe  0.35748130  0.76949554  0.49786055     1.65800
Fe218      Fe  0.26843757  0.63709079  0.49996379     1.71700
Fe219      Fe  0.39647421  0.66090403  0.49744162     1.54400
O220        O  0.44043928  0.71712261  0.44465940    -0.80800
O221        O  0.27899660  0.59179467  0.55446081    -0.79100
O222        O  0.40924009  0.78262048  0.44020358    -0.83300
O223        O  0.41472072  0.78503988  0.54968339    -0.78200
O224        O  0.36318568  0.60593535  0.44191175    -0.80000
O225        O  0.24684770  0.68103604  0.55050499    -0.82700
C226        C  0.43869151  0.75866628  0.56968239     0.98100
C227        C  0.43911956  0.76016952  0.42492177     1.05500
O228        O  0.34090935  0.68914458  0.49843477    -1.11700
O229        O  0.24920770  0.67505762  0.44368863    -0.74100
O230        O  0.30181394  0.76386273  0.44600285    -0.77600
O231        O  0.43505178  0.71146798  0.55481409    -0.78300
C232        C  0.26399781  0.72400446  0.42797897     0.97000
O233        O  0.30770375  0.76555354  0.55578739    -0.76300
O234        O  0.27944418  0.58446477  0.45184214    -0.81400
C235        C  0.31530736  0.57809061  0.56611732     0.99600
C236        C  0.31661207  0.57736718  0.43196864     1.05500
O237        O  0.36013549  0.59976244  0.54808373    -0.77100
C238        C  0.26588602  0.72800637  0.57035288     1.03800
Fe239      Fe  0.22579899  0.87031120  0.49937967     1.65800
Fe240      Fe  0.13462945  0.92599067  0.50103081     1.73200
Fe241      Fe  0.09883154  0.78433535  0.50148751     1.54400
O242        O  0.13342712  0.75493069  0.44930305    -0.80800
O243        O  0.07887978  0.89438401  0.55464803    -0.79100
O244        O  0.21581882  0.81197174  0.44726717    -0.83300
O245        O  0.21625132  0.81156371  0.55081214    -0.78200
O246        O  0.05686079  0.80110791  0.44952349    -0.80000
O247        O  0.18723877  0.96657122  0.55548537    -0.82700
C248        C  0.17911472  0.77044868  0.56768784     0.98100
C249        C  0.17872694  0.76923341  0.43334417     1.05500
O250        O  0.15292014  0.86018632  0.50064681    -1.11700
O251        O  0.18678995  0.96621639  0.44548000    -0.74100
O252        O  0.24515341  0.92917372  0.44576545    -0.77600
O253        O  0.13313221  0.75721516  0.55483179    -0.78300
C254        C  0.22713554  0.96230339  0.42850905     0.97000
O255        O  0.24519722  0.92884166  0.55326413    -0.76300
O256        O  0.07927704  0.89263496  0.44836535    -0.81400
C257        C  0.05086219  0.84556331  0.56798913     0.99600
C258        C  0.05223575  0.84395826  0.43384972     1.05500
O259        O  0.05618195  0.80300881  0.55216240    -0.77100
C260        C  0.22753290  0.96224052  0.57133859     1.03800
N261        N  0.23535315  0.73345876  0.38895024    -0.02600
C262        C  0.23275866  0.70962349  0.34526357     0.00000
C263        C  0.18435766  0.69531731  0.32598744    -0.22900
C264        C  0.15652414  0.71215309  0.35833177    -0.23100
C265        C  0.18903236  0.73583293  0.39598171    -0.00100
H266        H  0.17276783  0.68136857  0.28963995     0.13600
H267        H  0.11866182  0.71182322  0.35294974     0.13700
N268        N  0.23783796  0.73753711  0.61058301    -0.02600
C269        C  0.23531828  0.71223141  0.65350127     0.00000
C270        C  0.18600368  0.69366893  0.67240997    -0.22900
C271        C  0.15753245  0.71005452  0.64118911    -0.23100
C272        C  0.19060141  0.73760643  0.60447795    -0.00100
H273        H  0.17377537  0.67700462  0.70808873     0.13600
H274        H  0.11849922  0.70641081  0.64670821     0.13700
N275        N  0.25584216  0.99685030  0.61037249    -0.02600
C276        C  0.25647324  0.97660557  0.65500355     0.00000
C277        C  0.30523312  0.50057003  0.67415376    -0.22900
C278        C  0.33528735  0.53825020  0.64104408    -0.23100
C279        C  0.30372871  0.53545237  0.60296203    -0.00100
H280        H  0.31583879  0.49722251  0.71096490     0.13600
H281        H  0.37388080  0.56835229  0.64644867     0.13700
N282        N  0.25496350  0.99707582  0.38901985    -0.02600
C283        C  0.25210232  0.97911046  0.34301983     0.00000
C284        C  0.29896174  0.50518187  0.31989167    -0.22900
C285        C  0.33151704  0.54107469  0.35238475    -0.23100
C286        C  0.30323340  0.53554148  0.39409134    -0.00100
H287        H  0.30651681  0.50415246  0.28169242     0.13600
H288        H  0.36926280  0.57213684  0.34463748     0.13700
N289        N  0.47530403  0.78751460  0.38652109    -0.02600
C290        C  0.46311448  0.79008693  0.33942285     0.00000
C291        C  0.99407831  0.84100653  0.32006262    -0.22900
C292        C  0.02747073  0.86986579  0.35504363    -0.23100
C293        C  0.01578193  0.83596299  0.39475939    -0.00100
H294        H  0.99690442  0.85334770  0.28267691     0.13600
H295        H  0.06024129  0.90848251  0.35024900     0.13700
N296        N  0.47243785  0.78478047  0.60936932    -0.02600
C297        C  0.45804070  0.77966785  0.65649027     0.00000
C298        C  0.98395719  0.82981622  0.67949753    -0.22900
C299        C  0.01778207  0.86484058  0.64674857    -0.23100
C300        C  0.51060298  0.83542222  0.60449134    -0.00100
H301        H  0.98549767  0.83661269  0.71803007     0.13600
H302        H  0.04902792  0.90360909  0.65495556     0.13700
Fe303      Fe  0.03141489  0.54976151  0.00136029     1.65800
Fe304      Fe  0.40215191  0.97578515  0.99979839     1.73200
Fe305      Fe  0.48453917  0.90802185  0.00062368     1.54400
O306        O  0.03844673  0.93384790  0.94653298    -0.80800
O307        O  0.37741123  0.91589082  0.05299356    -0.79100
O308        O  0.07060308  0.52592721  0.94802386    -0.83300
O309        O  0.06573617  0.52619324  0.05776705    -0.78200
O310        O  0.43132295  0.87159849  0.94843828    -0.80000
O311        O  0.41524482  0.53227641  0.05548060    -0.82700
C312        C  0.06473231  0.98032305  0.07312963     0.98100
C313        C  0.06784696  0.98036311  0.93004826     1.05500
O314        O  0.47266323  0.97781245  0.00060295    -1.11700
O315        O  0.41832889  0.53586711  0.94655996    -0.74100
O316        O  0.00316755  0.58051170  0.94491684    -0.77600
O317        O  0.03910238  0.93454492  0.05327272    -0.78300
C318        C  0.45914954  0.57084308  0.92785401     0.97000
O319        O  0.99926066  0.58262715  0.05469931    -0.76300
O320        O  0.38129188  0.91911283  0.94410887    -0.81400
C321        C  0.39373976  0.88149679  0.07066896     0.99600
C322        C  0.39587027  0.88191670  0.92918415     1.05500
O323        O  0.43219541  0.87381815  0.05443119    -0.77100
C324        C  0.45471761  0.57017680  0.07261329     1.03800
C325        C  0.42565100  0.67661347  0.74729188     0.21200
C326        C  0.39842816  0.64915820  0.78858583    -0.38700
C327        C  0.42618729  0.63159404  0.82170763     0.20200
C328        C  0.47733394  0.64133499  0.81444807     0.22800
C329        C  0.00438691  0.66828949  0.77305377    -0.39200
C330        C  0.47647023  0.68517467  0.73972744     0.21600
N331        N  0.41006433  0.70335585  0.71368384    -0.32500
C332        C  0.45105852  0.72938283  0.68454232    -0.10000
C333        C  0.49294518  0.71804232  0.69937875    -0.28800
N334        N  0.99561521  0.62250640  0.85186074    -0.45400
C335        C  0.45582244  0.59991821  0.88319494    -0.04700
C336        C  0.41171076  0.60463104  0.86548448    -0.22100
H337        H  0.35896759  0.64334701  0.79513095     0.19700
H338        H  0.04470306  0.67703268  0.76787865     0.18500
H339        H  0.03207466  0.73750866  0.68636156     0.14800
H340        H  0.37416900  0.59024652  0.88232541     0.14700
H341        H  0.37526128  0.70778834  0.71305089     0.32800
H342        H  0.03275158  0.62394964  0.85542850     0.35600
C343        C  0.44462204  0.62238717  0.19042185     0.21200
C344        C  0.94791351  0.62663353  0.24114260    -0.38700
C345        C  0.43853889  0.67093193  0.26200217     0.20200
C346        C  0.42667333  0.70759534  0.23407615     0.22800
C347        C  0.42365475  0.70349101  0.18366450    -0.39200
C348        C  0.43298808  0.65960719  0.16296545     0.21600
N349        N  0.95410500  0.58591178  0.16165157    -0.32500
C350        C  0.44849264  0.60020958  0.11573215    -0.10000
C351        C  0.43524423  0.64592969  0.11513434    -0.28800
N352        N  0.42659054  0.75017669  0.26072450    -0.45400
C353        C  0.43942868  0.74231493  0.30621780    -0.04700
C354        C  0.94620201  0.69227010  0.30861177    -0.22100
H355        H  0.95908087  0.59895426  0.26254074     0.19700
H356        H  0.41670485  0.73385319  0.16190464     0.18500
H357        H  0.42871667  0.66670917  0.08391873     0.14800
H358        H  0.96169729  0.67757324  0.33841358     0.14700
H359        H  0.96412404  0.55348267  0.17245624     0.32800
H360        H  0.42440298  0.78608553  0.24708031     0.35600
C361        C  0.15762165  0.98427492  0.26523668     0.21200
C362        C  0.13757503  0.01565486  0.23765588    -0.38700
C363        C  0.12127243  0.99547189  0.19136120     0.20200
C364        C  0.12372479  0.94706162  0.17424557     0.22800
C365        C  0.14432908  0.91603952  0.20153566    -0.39200
C366        C  0.16165461  0.93684557  0.24747956     0.21600
N367        N  0.18294019  0.99948290  0.30682753    -0.32500
C368        C  0.20497302  0.96292600  0.31485972    -0.10000
C369        C  0.19180567  0.92267354  0.27895142    -0.28800
N370        N  0.10565452  0.93663539  0.12923449    -0.45400
C371        C  0.09225819  0.97910628  0.11732853    -0.04700
C372        C  0.10167701  0.01683933  0.15507269    -0.22100
H373        H  0.13692764  0.55435815  0.25048237     0.19700
H374        H  0.14871410  0.87978457  0.18718525     0.18500
H375        H  0.20801716  0.89208423  0.27304343     0.14800
H376        H  0.09351235  0.55377589  0.15637294     0.14700
H377        H  0.19101826  0.53695355  0.32479441     0.32800
H378        H  0.10211047  0.90241309  0.10807716     0.35600
C379        C  0.13485127  0.95072708  0.83178942     0.21200
C380        C  0.15872926  0.92131694  0.80587884    -0.38700
C381        C  0.17367804  0.93930114  0.75857638     0.20200
C382        C  0.16472882  0.98271489  0.73842318     0.22800
C383        C  0.14167168  0.01278634  0.76465834    -0.39200
C384        C  0.12744957  0.99533510  0.81221287     0.21600
N385        N  0.11656499  0.94128336  0.87710211    -0.32500
C386        C  0.09811266  0.98066404  0.88675434    -0.10000
C387        C  0.10447943  0.01543635  0.84727521    -0.28800
N388        N  0.18717616  0.99538407  0.69487124    -0.45400
C389        C  0.21207529  0.96117900  0.68775262    -0.04700
C390        C  0.20395609  0.92507615  0.72652969    -0.22100
H391        H  0.16642518  0.88790642  0.82185130     0.19700
H392        H  0.13651018  0.04813557  0.74956312     0.18500
H393        H  0.09156148  0.04892063  0.84386841     0.14800
H394        H  0.22281636  0.89707233  0.73300526     0.14700
H395        H  0.11571624  0.90933839  0.89978612     0.32800
H396        H  0.19090935  0.02983420  0.67411961     0.35600
C397        C  0.35914853  0.83585087  0.81017792     0.21200
C398        C  0.35554059  0.84131171  0.76044556    -0.38700
C399        C  0.33034773  0.79203268  0.73530168     0.20200
C400        C  0.30929432  0.74125045  0.75815718     0.22800
C401        C  0.31464536  0.73556153  0.80778691    -0.39200
C402        C  0.34065698  0.78487425  0.83284287     0.21600
N403        N  0.37854961  0.87677766  0.84226679    -0.32500
C404        C  0.37334241  0.85167660  0.88551559    -0.10000
C405        C  0.35046337  0.79435108  0.88125903    -0.28800
N406        N  0.27822525  0.70278032  0.72819558    -0.45400
C407        C  0.27905329  0.72946299  0.68628195    -0.04700
C408        C  0.31276525  0.78468118  0.68892986    -0.22100
H409        H  0.36884277  0.88128536  0.74299140     0.19700
H410        H  0.29743549  0.69609696  0.82592942     0.18500
H411        H  0.34204973  0.76395599  0.90969264     0.14800
H412        H  0.31644197  0.81716326  0.66350892     0.14700
H413        H  0.39559953  0.91913631  0.83513519     0.32800
H414        H  0.25303127  0.66286524  0.73765783     0.35600
C415        C  0.35636264  0.83410236  0.18940394     0.21200
C416        C  0.35412649  0.83842230  0.23949691    -0.38700
C417        C  0.32903294  0.78858934  0.26412528     0.20200
C418        C  0.30722244  0.73834014  0.24056620     0.22800
C419        C  0.31062755  0.73394256  0.19044132    -0.39200
C420        C  0.33618114  0.78374601  0.16585653     0.21600
N421        N  0.37636767  0.87560084  0.15782217    -0.32500
C422        C  0.36942980  0.85135911  0.11399096    -0.10000
C423        C  0.34499093  0.79413037  0.11736275    -0.28800
N424        N  0.27619787  0.69946264  0.27053760    -0.45400
C425        C  0.27744378  0.72544580  0.31305053    -0.04700
C426        C  0.31205481  0.78036522  0.31094907    -0.22100
H427        H  0.36853137  0.87794909  0.25774624     0.19700
H428        H  0.29244474  0.69501505  0.17175553     0.18500
H429        H  0.33579431  0.76428337  0.08838201     0.14800
H430        H  0.31605302  0.81249483  0.33702058     0.14700
H431        H  0.39529522  0.91761851  0.16560007     0.32800
H432        H  0.24993094  0.66030772  0.26061951     0.35600
Fe433      Fe  0.85750038  0.26948051  0.49786669     1.65800
Fe434      Fe  0.76845855  0.13708113  0.49998119     1.71700
Fe435      Fe  0.89649034  0.16088922  0.49744798     1.54400
O436        O  0.94047114  0.21712789  0.44468645    -0.80800
O437        O  0.77902259  0.09180946  0.55449335    -0.79100
O438        O  0.90923526  0.28259267  0.44019208    -0.83300
O439        O  0.91475908  0.28502866  0.54967082    -0.78200
O440        O  0.86320879  0.10594957  0.44189820    -0.80000
O441        O  0.74686777  0.18104268  0.55050829    -0.82700
C442        C  0.93870768  0.25864253  0.56968866     0.98100
C443        C  0.93913294  0.26015619  0.42492904     1.05500
O444        O  0.84092812  0.18913173  0.49844497    -1.11700
O445        O  0.74922942  0.17503103  0.44369288    -0.74100
O446        O  0.80181254  0.26384360  0.44602859    -0.77600
O447        O  0.93504874  0.21143123  0.55483814    -0.78300
C448        C  0.76400618  0.22398180  0.42799518     0.97000
O449        O  0.80774506  0.26554513  0.55581012    -0.76300
O450        O  0.77946608  0.08443898  0.45187360    -0.81400
C451        C  0.81532236  0.07807524  0.56612330     0.99600
C452        C  0.81663336  0.07736380  0.43197443     1.05500
O453        O  0.86014205  0.09972241  0.54806812    -0.77100
C454        C  0.76591780  0.22800686  0.57036651     1.03800
Fe455      Fe  0.72580981  0.37030962  0.49938630     1.65800
Fe456      Fe  0.63462883  0.42597232  0.50104443     1.73200
Fe457      Fe  0.59884619  0.28431832  0.50149867     1.54400
O458        O  0.63343391  0.25492752  0.44929949    -0.80800
O459        O  0.57887580  0.39435247  0.55465306    -0.79100
O460        O  0.71583114  0.31195204  0.44728835    -0.83300
O461        O  0.71627584  0.31157842  0.55083373    -0.78200
O462        O  0.55685986  0.30109112  0.44954927    -0.80000
O463        O  0.68722507  0.46655121  0.55550473    -0.82700
C464        C  0.67914469  0.27044599  0.56769470     0.98100
C465        C  0.67873749  0.26922165  0.43335405     1.05500
O466        O  0.65292861  0.36017340  0.50065808    -1.11700
O467        O  0.68679118  0.46621398  0.44550200    -0.74100
O468        O  0.74514315  0.42915494  0.44575544    -0.77600
O469        O  0.63316390  0.25719382  0.55482504    -0.78300
C470        C  0.72712650  0.46229350  0.42851365     0.97000
O471        O  0.74521170  0.42886062  0.55325785    -0.76300
O472        O  0.57928992  0.39261940  0.44837192    -0.81400
C473        C  0.55087500  0.34553242  0.56800681     0.99600
C474        C  0.55224391  0.34394181  0.43386436     1.05500
O475        O  0.55620695  0.30298022  0.55219055    -0.77100
C476        C  0.72753357  0.46224305  0.57134355     1.03800
N477        N  0.73536092  0.23343623  0.38896670    -0.02600
C478        C  0.73276966  0.20960732  0.34527785     0.00000
C479        C  0.68437370  0.19531582  0.32599408    -0.22900
C480        C  0.65654077  0.21215482  0.35833585    -0.23100
C481        C  0.68904359  0.23582105  0.39599263    -0.00100
H482        H  0.67278876  0.18137666  0.28964351     0.13600
H483        H  0.61868367  0.21183720  0.35294781     0.13700
N484        N  0.73787082  0.23754132  0.61059595    -0.02600
C485        C  0.73534417  0.21222771  0.65351206     0.00000
C486        C  0.68602323  0.19364686  0.67240744    -0.22900
C487        C  0.65755519  0.21003252  0.64118364    -0.23100
C488        C  0.69063230  0.23760302  0.60448420    -0.00100
H489        H  0.67378671  0.17697109  0.70808146     0.13600
H490        H  0.61851707  0.20637596  0.64669387     0.13700
N491        N  0.75584064  0.49685915  0.61037521    -0.02600
C492        C  0.75647638  0.47662424  0.65500958     0.00000
C493        C  0.80523361  0.00052670  0.67414353    -0.22900
C494        C  0.83529612  0.03820272  0.64103493    -0.23100
C495        C  0.80373746  0.03542668  0.60295836    -0.00100
H496        H  0.81583875  0.99716918  0.71095293     0.13600
H497        H  0.87389585  0.06829058  0.64643853     0.13700
N498        N  0.75494583  0.49707163  0.38902389    -0.02600
C499        C  0.75208098  0.47911026  0.34302225     0.00000
C500        C  0.79898165  0.00518695  0.31988830    -0.22900
C501        C  0.83153438  0.04108338  0.35238111    -0.23100
C502        C  0.80325031  0.03554742  0.39408825    -0.00100
H503        H  0.80653819  0.00415360  0.28168973     0.13600
H504        H  0.86928041  0.07214557  0.34463477     0.13700
N505        N  0.97531946  0.28750060  0.38653014    -0.02600
C506        C  0.96313856  0.29006680  0.33942889     0.00000
C507        C  0.49411233  0.34097878  0.32006307    -0.22900
C508        C  0.52750044  0.36984102  0.35504609    -0.23100
C509        C  0.51579880  0.33594631  0.39476783    -0.00100
H510        H  0.49694648  0.35330996  0.28267403     0.13600
H511        H  0.56027662  0.40845259  0.35025026     0.13700
N512        N  0.97244744  0.28475497  0.60937977    -0.02600
C513        C  0.95804509  0.27963982  0.65649853     0.00000
C514        C  0.48396600  0.32978317  0.67951171    -0.22900
C515        C  0.51779964  0.36480585  0.64676812    -0.23100
C516        C  0.01061809  0.33539253  0.60450803    -0.00100
H517        H  0.48550466  0.33657408  0.71804504     0.13600
H518        H  0.54905082  0.40356842  0.65497997     0.13700
Fe519      Fe  0.53143381  0.04975366  0.00137519     1.65800
Fe520      Fe  0.90213607  0.47579251  0.99981919     1.73200
Fe521      Fe  0.98452553  0.40803284  0.00064021     1.54400
O522        O  0.53837990  0.43382854  0.94650122    -0.80800
O523        O  0.87739380  0.41587535  0.05299907    -0.79100
O524        O  0.57062675  0.02594429  0.94803027    -0.83300
O525        O  0.56575094  0.02616246  0.05777336    -0.78200
O526        O  0.93125197  0.37156330  0.94850857    -0.80000
O527        O  0.91525063  0.03229536  0.05544202    -0.82700
C528        C  0.56475185  0.48036189  0.07310675     0.98100
C529        C  0.56779753  0.48034251  0.93002629     1.05500
O530        O  0.97264723  0.47782113  0.00061016    -1.11700
O531        O  0.91835969  0.03583935  0.94652751    -0.74100
O532        O  0.50319515  0.08053089  0.94494159    -0.77600
O533        O  0.53914500  0.43458427  0.05323853    -0.78300
C534        C  0.95918390  0.07084152  0.92785188     0.97000
O535        O  0.49927558  0.08259488  0.05472525    -0.76300
O536        O  0.88128415  0.41914473  0.94411771    -0.81400
C537        C  0.89375736  0.38152675  0.07071026     0.99600
C538        C  0.89582837  0.38191105  0.92922730     1.05500
O539        O  0.93223908  0.37388090  0.05449925    -0.77100
C540        C  0.95472276  0.07016947  0.07260557     1.03800
C541        C  0.92566773  0.17659722  0.74730053     0.21200
C542        C  0.89845576  0.14915304  0.78860100    -0.38700
C543        C  0.92622142  0.13159172  0.82171572     0.20200
C544        C  0.97736606  0.14132801  0.81444723     0.22800
C545        C  0.50440863  0.16826979  0.77304447    -0.39200
C546        C  0.97648324  0.18514878  0.73972234     0.21600
N547        N  0.91007480  0.20333913  0.71369837    -0.32500
C548        C  0.95106035  0.22935309  0.68454460    -0.10000
C549        C  0.99294762  0.21800575  0.69936742    -0.28800
N550        N  0.49565339  0.12250307  0.85185834    -0.45400
C551        C  0.95586373  0.09992174  0.88319698    -0.04700
C552        C  0.91175110  0.10463468  0.86549301    -0.22100
H553        H  0.85899818  0.14334808  0.79515591     0.19700
H554        H  0.54472282  0.17700868  0.76785988     0.18500
H555        H  0.53207361  0.23746597  0.68633969     0.14800
H556        H  0.87421160  0.09025222  0.88233841     0.14700
H557        H  0.87527549  0.20778568  0.71308085     0.32800
H558        H  0.53278858  0.12394118  0.85542112     0.35600
C559        C  0.94466182  0.12238581  0.19041923     0.21200
C560        C  0.44798582  0.12664356  0.24113724    -0.38700
C561        C  0.93859115  0.17092512  0.26200603     0.20200
C562        C  0.92668453  0.20756719  0.23409043     0.22800
C563        C  0.92363326  0.20345131  0.18368045    -0.39200
C564        C  0.93297809  0.15957819  0.16297260     0.21600
N565        N  0.45415199  0.08592088  0.16164170    -0.32500
C566        C  0.94848902  0.10019315  0.11572732    -0.10000
C567        C  0.93520367  0.14588912  0.11513957    -0.28800
N568        N  0.92659151  0.25014106  0.26074360    -0.45400
C569        C  0.93945570  0.24229073  0.30623005    -0.04700
C570        C  0.44626458  0.19226486  0.30861401    -0.22100
H571        H  0.45918802  0.09898424  0.26252622     0.19700
H572        H  0.91664716  0.23379552  0.16192745     0.18500
H573        H  0.92863901  0.16664995  0.08392910     0.14800
H574        H  0.46178823  0.17758555  0.33840624     0.14700
H575        H  0.46420844  0.05351513  0.17243862     0.32800
H576        H  0.92438395  0.28604220  0.24710506     0.35600
C577        C  0.65763687  0.48433066  0.26521873     0.21200
C578        C  0.63761639  0.51572413  0.23762383    -0.38700
C579        C  0.62130548  0.49553033  0.19133338     0.20200
C580        C  0.62372795  0.44709986  0.17423423     0.22800
C581        C  0.64430371  0.41606270  0.20153922    -0.39200
C582        C  0.66163568  0.43687734  0.24747926     0.21600
N583        N  0.68295728  0.49953754  0.30680908    -0.32500
C584        C  0.70495504  0.46295238  0.31485946    -0.10000
C585        C  0.69176429  0.42268624  0.27896263    -0.28800
N586        N  0.60565543  0.43666648  0.12922430    -0.45400
C587        C  0.59228453  0.47915099  0.11730307    -0.04700
C588        C  0.60172436  0.51690112  0.15503602    -0.22100
H589        H  0.63686085  0.05427234  0.25052824     0.19700
H590        H  0.64866264  0.37978813  0.18720273     0.18500
H591        H  0.70794823  0.39207127  0.27306889     0.14800
H592        H  0.59344405  0.05370060  0.15642186     0.14700
H593        H  0.69097586  0.03688644  0.32482518     0.32800
H594        H  0.60208870  0.40242809  0.10807974     0.35600
C595        C  0.63484434  0.45072881  0.83178860     0.21200
C596        C  0.65876182  0.42134437  0.80589776    -0.38700
C597        C  0.67369069  0.43930486  0.75858637     0.20200
C598        C  0.66469027  0.48267465  0.73840747     0.22800
C599        C  0.64159571  0.51272338  0.76462344    -0.39200
C600        C  0.62739023  0.49529445  0.81218594     0.21600
N601        N  0.61656249  0.44129573  0.87710346    -0.32500
C602        C  0.59806110  0.48064215  0.88673087    -0.10000
C603        C  0.60439089  0.51538092  0.84723372    -0.28800
N604        N  0.68712788  0.49533425  0.69485041    -0.45400
C605        C  0.71207207  0.46116900  0.68775404    -0.04700
C606        C  0.70399024  0.42509867  0.72655060    -0.22100
H607        H  0.66649835  0.38796927  0.82188990     0.19700
H608        H  0.63639283  0.54803998  0.74950767     0.18500
H609        H  0.59143325  0.54883336  0.84380748     0.14800
H610        H  0.72288892  0.39713498  0.73304512     0.14700
H611        H  0.61575100  0.40938064  0.89980623     0.32800
H612        H  0.69082571  0.52976028  0.67408050     0.35600
C613        C  0.85912186  0.33584910  0.81022143     0.21200
C614        C  0.85552310  0.34131463  0.76048902    -0.38700
C615        C  0.83034057  0.29203755  0.73534013     0.20200
C616        C  0.80928905  0.24125223  0.75819074     0.22800
C617        C  0.81462946  0.23555914  0.80782187    -0.39200
C618        C  0.84063086  0.28487056  0.83288317     0.21600
N619        N  0.87851504  0.37677338  0.84231272    -0.32500
C620        C  0.87330451  0.35166946  0.88556002    -0.10000
C621        C  0.85042981  0.29434401  0.88130085    -0.28800
N622        N  0.77823217  0.20278234  0.72822169    -0.45400
C623        C  0.77906715  0.22946788  0.68630784    -0.04700
C624        C  0.81276958  0.28468896  0.68896446    -0.22100
H625        H  0.86882541  0.38128999  0.74303788     0.19700
H626        H  0.79742076  0.19609206  0.82596057     0.18500
H627        H  0.84201544  0.26394723  0.90973313     0.14800
H628        H  0.81644838  0.31717221  0.66354410     0.14700
H629        H  0.89556429  0.41913255  0.83518347     0.32800
H630        H  0.75304193  0.16286333  0.73767754     0.35600
C631        C  0.85638488  0.33411615  0.18944335     0.21200
C632        C  0.85415728  0.33842025  0.23953899    -0.38700
C633        C  0.82905331  0.28858058  0.26415622     0.20200
C634        C  0.80722872  0.23834100  0.24058459     0.22800
C635        C  0.81061952  0.23396013  0.19045758    -0.39200
C636        C  0.83617982  0.28376876  0.16588401     0.21600
N637        N  0.87640369  0.37562174  0.15786955    -0.32500
C638        C  0.86944508  0.35139143  0.11403218    -0.10000
C639        C  0.84498161  0.29416499  0.11739191    -0.28800
N640        N  0.77620462  0.19945646  0.27054979    -0.45400
C641        C  0.77745900  0.22542613  0.31307105    -0.04700
C642        C  0.81208077  0.28034238  0.31098175    -0.22100
H643        H  0.86857830  0.37794035  0.25779899     0.19700
H644        H  0.79242283  0.19504085  0.17176283     0.18500
H645        H  0.83576777  0.26432577  0.08840415     0.14800
H646        H  0.81608843  0.31246469  0.33706366     0.14700
H647        H  0.89535140  0.41763471  0.16565563     0.32800
H648        H  0.74992922  0.16030928  0.26062305     0.35600
Fe649      Fe  0.85748120  0.76949552  0.49786060     1.65800
Fe650      Fe  0.76843750  0.63709074  0.49996383     1.71700
Fe651      Fe  0.89647414  0.66090404  0.49744161     1.54400
O652        O  0.94043922  0.71712269  0.44465943    -0.80800
O653        O  0.77899655  0.59179470  0.55446089    -0.79100
O654        O  0.90923995  0.78262049  0.44020359    -0.83300
O655        O  0.91472073  0.78503990  0.54968336    -0.78200
O656        O  0.86318557  0.60593540  0.44191171    -0.80000
O657        O  0.74684761  0.68103602  0.55050496    -0.82700
C658        C  0.93869154  0.75866630  0.56968234     0.98100
C659        C  0.93911948  0.76016959  0.42492181     1.05500
O660        O  0.84090928  0.68914456  0.49843480    -1.11700
O661        O  0.74920766  0.67505749  0.44368862    -0.74100
O662        O  0.80181373  0.76386267  0.44600298    -0.77600
O663        O  0.93505175  0.71146797  0.55481407    -0.78300
C664        C  0.76399766  0.72400436  0.42797904     0.97000
O665        O  0.80770372  0.76555347  0.55578749    -0.76300
O666        O  0.77944407  0.58446461  0.45184227    -0.81400
C667        C  0.81530730  0.57809059  0.56611733     0.99600
C668        C  0.81661196  0.57736713  0.43196867     1.05500
O669        O  0.86013542  0.59976239  0.54808369    -0.77100
C670        C  0.76588595  0.72800633  0.57035290     1.03800
Fe671      Fe  0.72579885  0.87031101  0.49937965     1.65800
Fe672      Fe  0.63462940  0.92599061  0.50103082     1.73200
Fe673      Fe  0.59883138  0.78433526  0.50148763     1.54400
O674        O  0.63342685  0.75493046  0.44930314    -0.80800
O675        O  0.57887964  0.89438402  0.55464798    -0.79100
O676        O  0.71581855  0.81197151  0.44726718    -0.83300
O677        O  0.71625117  0.81156353  0.55081213    -0.78200
O678        O  0.55686065  0.80110786  0.44952364    -0.80000
O679        O  0.68723871  0.96657106  0.55548543    -0.82700
C680        C  0.67911457  0.77044853  0.56768787     0.98100
C681        C  0.67872667  0.76923316  0.43334423     1.05500
O682        O  0.65292003  0.86018621  0.50064685    -1.11700
O683        O  0.68678996  0.96621633  0.44548006    -0.74100
O684        O  0.74515331  0.92917352  0.44576542    -0.77600
O685        O  0.63313206  0.75721504  0.55483188    -0.78300
C686        C  0.72713551  0.96230327  0.42850907     0.97000
O687        O  0.74519718  0.92884154  0.55326407    -0.76300
O688        O  0.57927707  0.89263494  0.44836531    -0.81400
C689        C  0.55086209  0.84556335  0.56798917     0.99600
C690        C  0.55223572  0.84395823  0.43384976     1.05500
O691        O  0.55618190  0.80300883  0.55216254    -0.77100
C692        C  0.72753287  0.96224039  0.57133858     1.03800
N693        N  0.73535298  0.73345865  0.38895034    -0.02600
C694        C  0.73275859  0.70962350  0.34526362     0.00000
C695        C  0.68435760  0.69531724  0.32598746    -0.22900
C696        C  0.65652396  0.71215284  0.35833181    -0.23100
C697        C  0.68903212  0.73583265  0.39598181    -0.00100
H698        H  0.67276784  0.68136860  0.28963993     0.13600
H699        H  0.61866163  0.71182292  0.35294976     0.13700
N700        N  0.73783788  0.73753704  0.61058301    -0.02600
C701        C  0.73531828  0.71223140  0.65350128     0.00000
C702        C  0.68600369  0.69366891  0.67241003    -0.22900
C703        C  0.65753239  0.71005439  0.64118916    -0.23100
C704        C  0.69060130  0.73760627  0.60447796    -0.00100
H705        H  0.67377545  0.67700467  0.70808882     0.13600
H706        H  0.61849916  0.70641065  0.64670829     0.13700
N707        N  0.75584216  0.99685016  0.61037247    -0.02600
C708        C  0.75647320  0.97660544  0.65500354     0.00000
C709        C  0.80523300  0.50056999  0.67415376    -0.22900
C710        C  0.83528725  0.53825014  0.64104408    -0.23100
C711        C  0.80372864  0.53545231  0.60296200    -0.00100
H712        H  0.81583865  0.49722249  0.71096491     0.13600
H713        H  0.87388069  0.56835224  0.64644869     0.13700
N714        N  0.75496349  0.99707572  0.38901989    -0.02600
C715        C  0.75210227  0.97911043  0.34301984     0.00000
C716        C  0.79896161  0.50518217  0.31989155    -0.22900
C717        C  0.83151689  0.54107494  0.35238466    -0.23100
C718        C  0.80323329  0.53554150  0.39409131    -0.00100
H719        H  0.80651665  0.50415290  0.28169229     0.13600
H720        H  0.86926260  0.57213720  0.34463741     0.13700
N721        N  0.97530394  0.78751467  0.38652113    -0.02600
C722        C  0.96311431  0.79008704  0.33942293     0.00000
C723        C  0.49407855  0.84100639  0.32006252    -0.22900
C724        C  0.52747090  0.86986568  0.35504357    -0.23100
C725        C  0.51578199  0.83596292  0.39475936    -0.00100
H726        H  0.49690473  0.85334754  0.28267680     0.13600
H727        H  0.56024146  0.90848240  0.35024897     0.13700
N728        N  0.97243789  0.78478047  0.60936928    -0.02600
C729        C  0.95804068  0.77966793  0.65649021     0.00000
C730        C  0.48395720  0.82981614  0.67949760    -0.22900
C731        C  0.51778195  0.86484059  0.64674860    -0.23100
C732        C  0.01060311  0.83542218  0.60449132    -0.00100
H733        H  0.48549775  0.83661258  0.71803015     0.13600
H734        H  0.54902777  0.90360913  0.65495557     0.13700
Fe735      Fe  0.53141491  0.54976135  0.00136021     1.65800
Fe736      Fe  0.90215182  0.97578541  0.99979844     1.73200
Fe737      Fe  0.98453896  0.90802195  0.00062364     1.54400
O738        O  0.53844694  0.93384779  0.94653306    -0.80800
O739        O  0.87741111  0.91589106  0.05299358    -0.79100
O740        O  0.57060322  0.52592700  0.94802395    -0.83300
O741        O  0.56573619  0.52619325  0.05776705    -0.78200
O742        O  0.93132269  0.87159865  0.94843826    -0.80000
O743        O  0.91524481  0.53227677  0.05548059    -0.82700
C744        C  0.56473247  0.98032308  0.07312964     0.98100
C745        C  0.56784714  0.98036301  0.93004833     1.05500
O746        O  0.97266311  0.97781261  0.00060296    -1.11700
O747        O  0.91832889  0.53586747  0.94656001    -0.74100
O748        O  0.50316756  0.58051133  0.94491665    -0.77600
O749        O  0.53910258  0.93454492  0.05327276    -0.78300
C750        C  0.95914957  0.57084348  0.92785414     0.97000
O751        O  0.49926061  0.58262710  0.05469910    -0.76300
O752        O  0.88129169  0.91911309  0.94410889    -0.81400
C753        C  0.89373957  0.88149696  0.07066894     0.99600
C754        C  0.89587001  0.88191689  0.92918417     1.05500
O755        O  0.93219518  0.87381825  0.05443115    -0.77100
C756        C  0.95471764  0.57017699  0.07261340     1.03800
C757        C  0.92565104  0.67661379  0.74729198     0.21200
C758        C  0.89842825  0.64915860  0.78858597    -0.38700
C759        C  0.92618738  0.63159447  0.82170777     0.20200
C760        C  0.97733403  0.64133539  0.81444820     0.22800
C761        C  0.50438684  0.66828917  0.77305369    -0.39200
C762        C  0.97647027  0.68517493  0.73972750     0.21600
N763        N  0.91006437  0.70335609  0.71368390    -0.32500
C764        C  0.95105849  0.72938296  0.68454231    -0.10000
C765        C  0.99294517  0.71804245  0.69937873    -0.28800
N766        N  0.49561512  0.62250597  0.85186059    -0.45400
C767        C  0.95582251  0.59991867  0.88319509    -0.04700
C768        C  0.91171084  0.60463149  0.86548462    -0.22100
H769        H  0.85896768  0.64334742  0.79513109     0.19700
H770        H  0.54470301  0.67703240  0.76787860     0.18500
H771        H  0.53207469  0.73750860  0.68636165     0.14800
H772        H  0.87416907  0.59024697  0.88232553     0.14700
H773        H  0.87526114  0.70778863  0.71305096     0.32800
H774        H  0.53275157  0.62394924  0.85542835     0.35600
C775        C  0.94462219  0.62238740  0.19042193     0.21200
C776        C  0.44791329  0.62663327  0.24114252    -0.38700
C777        C  0.93853899  0.67093213  0.26200224     0.20200
C778        C  0.92667326  0.70759542  0.23407624     0.22800
C779        C  0.92365461  0.70349106  0.18366459    -0.39200
C780        C  0.93298806  0.65960730  0.16296555     0.21600
N781        N  0.45410479  0.58591151  0.16165149    -0.32500
C782        C  0.94849269  0.60020977  0.11573225    -0.10000
C783        C  0.93524414  0.64592976  0.11513445    -0.28800
N784        N  0.92659037  0.75017675  0.26072459    -0.45400
C785        C  0.93942859  0.74231504  0.30621787    -0.04700
C786        C  0.44620192  0.69226989  0.30861171    -0.22100
H787        H  0.45908052  0.59895389  0.26254067     0.19700
H788        H  0.91670457  0.73385314  0.16190474     0.18500
H789        H  0.92871643  0.66670915  0.08391884     0.14800
H790        H  0.46169712  0.67757295  0.33841353     0.14700
H791        H  0.46412372  0.55348231  0.17245617     0.32800
H792        H  0.92440264  0.78608544  0.24708045     0.35600
C793        C  0.65762143  0.98427454  0.26523680     0.21200
C794        C  0.63757468  0.01565443  0.23765608    -0.38700
C795        C  0.62127238  0.99547172  0.19136127     0.20200
C796        C  0.62372517  0.94706172  0.17424544     0.22800
C797        C  0.64432961  0.91603969  0.20153542    -0.39200
C798        C  0.66165480  0.93684547  0.24747946     0.21600
N799        N  0.68293977  0.99948238  0.30682775    -0.32500
C800        C  0.70497291  0.96292573  0.31485980    -0.10000
C801        C  0.69180592  0.92267351  0.27895130    -0.28800
N802        N  0.60565505  0.93663563  0.12923429    -0.45400
C803        C  0.59225840  0.97910636  0.11732851    -0.04700
C804        C  0.60167688  0.01683915  0.15507283    -0.22100
H805        H  0.63692676  0.55435744  0.25048277     0.19700
H806        H  0.64871495  0.87978497  0.18718485     0.18500
H807        H  0.70801773  0.89208450  0.27304316     0.14800
H808        H  0.59351173  0.55377548  0.15637326     0.14700
H809        H  0.69101739  0.53695265  0.32479466     0.32800
H810        H  0.60211128  0.90241357  0.10807685     0.35600
C811        C  0.63485132  0.95072689  0.83178945     0.21200
C812        C  0.65872914  0.92131664  0.80587878    -0.38700
C813        C  0.67367793  0.93930089  0.75857632     0.20200
C814        C  0.66472887  0.98271478  0.73842323     0.22800
C815        C  0.64167193  0.01278635  0.76465848    -0.39200
C816        C  0.62744981  0.99533505  0.81221300     0.21600
N817        N  0.61656502  0.94128312  0.87710213    -0.32500
C818        C  0.59811286  0.98066393  0.88675444    -0.10000
C819        C  0.60447978  0.01543637  0.84727539    -0.28800
N820        N  0.68717622  0.99538402  0.69487129    -0.45400
C821        C  0.71207522  0.96117884  0.68775258    -0.04700
C822        C  0.70395591  0.92507587  0.72652956    -0.22100
H823        H  0.66642493  0.88790599  0.82185116     0.19700
H824        H  0.63651055  0.04813569  0.74956335     0.18500
H825        H  0.59156196  0.04892075  0.84386865     0.14800
H826        H  0.72281608  0.89707194  0.73300507     0.14700
H827        H  0.61571612  0.90933802  0.89978609     0.32800
H828        H  0.69090951  0.02983417  0.67411979     0.35600
C829        C  0.85914822  0.83585104  0.81017794     0.21200
C830        C  0.85554024  0.84131192  0.76044561    -0.38700
C831        C  0.83034758  0.79203288  0.73530167     0.20200
C832        C  0.80929441  0.74125060  0.75815711     0.22800
C833        C  0.81464553  0.73556165  0.80778682    -0.39200
C834        C  0.84065695  0.78487440  0.83284284     0.21600
N835        N  0.87854912  0.87677784  0.84226685    -0.32500
C836        C  0.87334209  0.85167675  0.88551563    -0.10000
C837        C  0.85046335  0.79435122  0.88125899    -0.28800
N838        N  0.77822544  0.70278042  0.72819549    -0.45400
C839        C  0.77905331  0.72946310  0.68628191    -0.04700
C840        C  0.81276508  0.78468137  0.68892986    -0.22100
H841        H  0.86884220  0.88128558  0.74299149     0.19700
H842        H  0.79743585  0.69609704  0.82592929     0.18500
H843        H  0.84204994  0.76395610  0.90969256     0.14800
H844        H  0.81644162  0.81716344  0.66350897     0.14700
H845        H  0.89559877  0.91913636  0.83513530     0.32800
H846        H  0.75303157  0.66286522  0.73765772     0.35600
C847        C  0.85636221  0.83410267  0.18940392     0.21200
C848        C  0.85412598  0.83842267  0.23949689    -0.38700
C849        C  0.82903265  0.78858970  0.26412531     0.20200
C850        C  0.80722241  0.73834043  0.24056629     0.22800
C851        C  0.81062759  0.73394280  0.19044143    -0.39200
C852        C  0.83618099  0.78374625  0.16585658     0.21600
N853        N  0.87636715  0.87560110  0.15782210    -0.32500
C854        C  0.86942957  0.85135929  0.11399094    -0.10000
C855        C  0.84499092  0.79413053  0.11736281    -0.28800
N856        N  0.77619801  0.69946287  0.27053772    -0.45400
C857        C  0.77744376  0.72544602  0.31305062    -0.04700
C858        C  0.81205454  0.78036555  0.31094911    -0.22100
H859        H  0.86853067  0.87794949  0.25774615     0.19700
H860        H  0.79244500  0.69501521  0.17175568     0.18500
H861        H  0.83579455  0.76428348  0.08838212     0.14800
H862        H  0.81605256  0.81249514  0.33702058     0.14700
H863        H  0.89529456  0.91761889  0.16559996     0.32800
H864        H  0.74993118  0.66030776  0.26061964     0.35600
loop_ 
_geom_bond_atom_site_label_1 
_geom_bond_atom_site_label_2 
_geom_bond_distance 
_geom_bond_site_symmetry_2 
_ccdc_geom_bond_type 
Fe1          O17   2.105       .  S
Fe1           O7   2.098       .  S
Fe1          O14   2.111       .  S
Fe1           O6   2.097       .  S
Fe1          O12   1.977       .  S
Fe2           O5   2.026       .  S
Fe2           O9   2.050       .  S
Fe2          O13   2.048       .  S
Fe2          O18   2.028       .  S
Fe2          O12   1.974       .  S
Fe3          O21   2.078       .  S
Fe3           O8   2.075       .  S
Fe3          O15   2.095       .  S
Fe3           O4   2.104       .  S
Fe3          O12   1.987       .  S
O4           C11   1.273       .  A
O5           C19   1.262       .  A
O6           C11   1.276       .  A
O7           C10   1.278       .  A
O8           C20   1.271       .  A
O9           C22   1.265       .  A
C10          O15   1.272       .  A
C10          N80   1.451       .  S
C11          N73   1.454       .  S
O13          C16   1.265       .  A
O14          C16   1.276       .  A
C16          N45   1.441       .  S
O17          C22   1.273       .  A
O18          C20   1.261       .  A
C19          O21   1.270       .  A
C19          C63   1.458       .  S
C20          C70   1.461       .  S
C22          N52   1.442       .  S
Fe23         O39   2.061       .  S
Fe23         O29   2.045       .  S
Fe23         O36   2.062       .  S
Fe23         O28   2.045       .  S
Fe23         O34   1.978       .  S
Fe24         O27   2.083       .  S
Fe24         O31   2.108       .  S
Fe24         O35   2.104       .  S
Fe24         O40   2.082       .  S
Fe24         O34   1.991       .  S
Fe25         O43   2.027       .  S
Fe25         O30   2.037       .  S
Fe25         O37   2.058       .  S
Fe25         O26   2.053       .  S
Fe25         O34   1.984       .  S
O26          C33   1.265       .  A
O27          C41   1.271       .  A
O28          C33   1.265       .  A
O29          C32   1.265       .  A
O30          C42   1.264       .  A
O31          C44   1.275       .  A
C32          O37   1.266       .  A
C32          C56   1.460       .  S
C33          C49   1.456       .  S
O35          C38   1.274       .  A
O36          C38   1.268       .  A
C38          N66   1.445       .  S
O39          C44   1.269       .  A
O40          C42   1.274       .  A
C41          O43   1.263       .  A
C41         C516   1.464       .  S
C42          C77   1.465       .  S
C44          N59   1.445       .  S
N45          C49   1.351       .  A
N45          C46   1.353       .  A
C46         C209   1.465       .  S
C46          C47   1.387       .  A
C47          C48   1.372       .  A
C47          H50   1.083       .  S
C48          C49   1.378       .  A
C48          H51   1.083       .  S
N52          C56   1.353       .  A
N52          C53   1.355       .  A
C53         C191   1.468       .  S
C53          C54   1.387       .  A
C54          C55   1.371       .  A
C54          H57   1.083       .  S
C55          C56   1.378       .  A
C55          H58   1.082       .  S
N59          C60   1.354       .  A
N59         C279   1.354       .  A
C60         C173   1.468       .  S
C60         C277   1.387       .  A
C61          C62   1.373       .  A
C61         C276   1.387   1_545  A
C61          H64   1.083   1_545  S
C62          C63   1.376       .  A
C62          H65   1.083       .  S
C63         N275   1.354   1_545  A
N66          C67   1.353       .  A
N66         C286   1.356       .  A
C67         C152   1.468       .  S
C67         C284   1.387       .  A
C68          C69   1.374       .  A
C68         C283   1.387   1_545  A
C68          H71   1.083       .  S
C69          C70   1.377       .  A
C69          H72   1.082       .  S
C70         N282   1.356   1_545  A
N73          C74   1.366       .  A
N73         C509   1.361       .  A
C74         C137   1.491       .  S
C74         C507   1.389       .  A
C75          C76   1.367   1_655  A
C75         C506   1.389       .  A
C75          H78   1.082       .  S
C76          C77   1.375       .  A
C76          H79   1.083       .  S
C77         N505   1.361   1_455  A
N80          C84   1.354       .  A
N80          C81   1.358       .  A
C81         C116   1.481       .  S
C81         C514   1.390       .  A
C82          C83   1.376   1_655  A
C82         C513   1.390       .  A
C82          H85   1.083       .  S
C83         C516   1.376       .  A
C83          H86   1.083       .  S
C84         C473   1.464       .  S
C84         C515   1.376       .  A
Fe87        O103   2.086   1_455  S
Fe87         O93   2.074       .  S
Fe87        O100   2.073   1_554  S
Fe87         O92   2.080   1_554  S
Fe87        O746   1.972   1_445  S
Fe88         O91   2.071   1_556  S
Fe88        O104   2.068       .  S
Fe88        O311   2.073   1_556  S
Fe88        O315   2.081       .  S
Fe88         O98   1.980   1_556  S
Fe89        O107   2.041       .  S
Fe89         O94   2.050   1_554  S
Fe89        O533   2.054       .  S
Fe89        O522   2.050   1_554  S
Fe89         O98   1.991       .  S
O90        Fe521   2.050   1_456  S
O90          C97   1.265       .  A
O91         C105   1.269       .  A
O92         C313   1.270   1_545  A
O93         C312   1.270   1_545  A
O94         C106   1.264       .  A
O95        Fe304   2.073   1_544  S
O95         C108   1.268       .  A
C96         O101   1.265       .  A
C96         O309   1.270       .  A
C96         C155   1.469       .  S
C97         O308   1.270       .  A
C97         C170   1.468       .  S
O98        Fe735   1.972       .  S
O99        Fe304   2.081   1_545  S
O99         C102   1.270       .  A
O100        C534   1.270   1_455  A
O101       Fe521   2.054   1_455  S
C102        O532   1.270       .  A
C102        C119   1.483       .  S
O103        C540   1.271       .  A
O104        C106   1.268       .  A
C105        O107   1.263       .  A
C105        C206   1.454       .  S
C106        C188   1.457       .  S
C108        O535   1.271       .  A
C108        C134   1.479       .  S
C109        N115   1.349       .  A
C109        C114   1.383       .  A
C109        C110   1.409       .  A
C110        C111   1.408       .  A
C110        H121   1.082       .  S
C111        C120   1.385       .  A
C111        C112   1.383       .  A
C112        N550   1.346       .  A
C112        C545   1.406       .  A
C113        C544   1.406   1_455  A
C113        C546   1.406   1_455  A
C113        H122   1.083       .  S
C114        C117   1.379       .  A
C114        C545   1.406       .  A
N115        C116   1.355       .  A
N115        H125   1.039       .  S
C116        C117   1.400       .  A
C117        H555   1.083       .  S
N118        C544   1.346       .  A
N118        C551   1.357       .  A
N118        H126   1.045   1_655  S
C119        N550   1.357       .  A
C119        C120   1.399       .  A
C120        H124   1.082       .  S
H123        C549   1.083   1_455  S
C127        N565   1.350       .  A
C127        C132   1.383       .  A
C127        C560   1.414       .  A
C128        C559   1.414       .  A
C128        C561   1.413       .  A
C128        H139   1.082       .  S
C129        C130   1.382       .  A
C129        C560   1.413       .  A
C129        C570   1.394       .  A
C130        N136   1.340       .  A
C130        C131   1.405       .  A
C131        C132   1.401       .  A
C131        H140   1.082       .  S
C132        C135   1.383       .  A
N133        C559   1.350       .  A
N133        C566   1.360       .  A
N133        H143   1.045       .  S
C134        N565   1.360       .  A
C134        C135   1.393       .  A
C135        H141   1.082       .  S
N136        C137   1.358       .  A
N136        H144   1.043       .  S
C137        C570   1.404       .  A
C138        C561   1.394       .  A
C138        C569   1.404       .  A
C138        H142   1.082       .  S
C145        N151   1.342       .  A
C145        C150   1.384       .  A
C145        C146   1.405       .  A
C146        C147   1.402       .  A
C146        H373   1.083       .  S
C147        C156   1.379       .  A
C147        C148   1.384       .  A
C148        N154   1.343       .  A
C148        C149   1.403       .  A
C149        C150   1.403       .  A
C149        H158   1.082       .  S
C150        C153   1.379       .  A
N151        C152   1.356       .  A
N151        H377   1.045       .  S
C152        C153   1.395       .  A
C153        H159   1.082       .  S
N154        C155   1.356       .  A
N154        H162   1.045       .  S
C155        C156   1.395       .  A
C156        H376   1.082       .  S
H157        C362   1.083       .  S
H160        C372   1.082       .  S
H161        N367   1.045   1_545  S
C163        N169   1.343       .  A
C163        C168   1.384       .  A
C163        C164   1.403       .  A
C164        C165   1.402       .  A
C164        H175   1.082       .  S
C165        C174   1.379       .  A
C165        C166   1.384       .  A
C166        N172   1.342       .  A
C166        C167   1.405       .  A
C167        C168   1.403       .  A
C167        H176   1.083       .  S
C168        C171   1.380       .  A
N169        C170   1.355       .  A
N169        H179   1.045       .  S
C170        C171   1.395       .  A
C171        H177   1.083       .  S
N172        C173   1.356       .  A
N172        H180   1.045       .  S
C173        C174   1.395       .  A
C174        H178   1.083       .  S
C181        N187   1.340       .  A
C181        C186   1.385       .  A
C181        C182   1.399       .  A
C182        C183   1.399       .  A
C182        H193   1.083       .  S
C183        C192   1.372       .  A
C183        C184   1.385       .  A
C184        N190   1.343       .  A
C184        C185   1.404       .  A
C185        C186   1.402       .  A
C185        H194   1.082       .  S
C186        C189   1.378       .  A
N187        C188   1.352       .  A
N187        H197   1.045       .  S
C188        C189   1.393       .  A
C189        H195   1.082       .  S
N190        C191   1.357       .  A
N190        H198   1.045       .  S
C191        C192   1.394       .  A
C192        H196   1.083       .  S
C199        N205   1.340       .  A
C199        C204   1.384       .  A
C199        C200   1.399       .  A
C200        C201   1.400       .  A
C200        H211   1.083       .  S
C201        C210   1.370       .  A
C201        C202   1.385       .  A
C202        N208   1.342       .  A
C202        C203   1.402       .  A
C203        C204   1.400       .  A
C203        H212   1.082       .  S
C204        C207   1.376       .  A
N205        C206   1.352       .  A
N205        H215   1.045       .  S
C206        C207   1.392       .  A
C207        H213   1.082       .  S
N208        C209   1.356       .  A
N208        H216   1.045       .  S
C209        C210   1.394       .  A
C210        H214   1.083       .  S
Fe217       O233   2.105       .  S
Fe217       O223   2.098       .  S
Fe217       O230   2.111       .  S
Fe217       O222   2.097       .  S
Fe217       O228   1.977       .  S
Fe218       O221   2.026       .  S
Fe218       O225   2.050       .  S
Fe218       O229   2.048       .  S
Fe218       O234   2.028       .  S
Fe218       O228   1.974       .  S
Fe219       O237   2.078       .  S
Fe219       O224   2.075       .  S
Fe219       O231   2.095       .  S
Fe219       O220   2.104       .  S
Fe219       O228   1.987       .  S
O220        C227   1.273       .  A
O221        C235   1.262       .  A
O222        C227   1.276       .  A
O223        C226   1.278       .  A
O224        C236   1.271       .  A
O225        C238   1.265       .  A
C226        O231   1.272       .  A
C226        N296   1.451       .  S
C227        N289   1.454       .  S
O229        C232   1.265       .  A
O230        C232   1.276       .  A
C232        N261   1.441       .  S
O233        C238   1.273       .  A
O234        C236   1.261       .  A
C235        O237   1.270       .  A
C235        C279   1.458       .  S
C236        C286   1.461       .  S
C238        N268   1.442       .  S
Fe239       O255   2.061       .  S
Fe239       O245   2.045       .  S
Fe239       O252   2.062       .  S
Fe239       O244   2.044       .  S
Fe239       O250   1.978       .  S
Fe240       O243   2.083       .  S
Fe240       O247   2.108       .  S
Fe240       O251   2.104       .  S
Fe240       O256   2.083       .  S
Fe240       O250   1.991       .  S
Fe241       O259   2.027       .  S
Fe241       O246   2.037       .  S
Fe241       O253   2.058       .  S
Fe241       O242   2.053       .  S
Fe241       O250   1.984       .  S
O242        C249   1.265       .  A
O243        C257   1.271       .  A
O244        C249   1.265       .  A
O245        C248   1.265       .  A
O246        C258   1.264       .  A
O247        C260   1.275       .  A
C248        O253   1.266       .  A
C248        C272   1.460       .  S
C249        C265   1.456       .  S
O251        C254   1.274       .  A
O252        C254   1.268       .  A
C254        N282   1.445       .  S
O255        C260   1.269       .  A
O256        C258   1.274       .  A
C257        O259   1.263       .  A
C257        C732   1.464       .  S
C258        C293   1.465       .  S
C260        N275   1.445       .  S
N261        C265   1.351       .  A
N261        C262   1.353       .  A
C262        C425   1.465       .  S
C262        C263   1.387       .  A
C263        C264   1.372       .  A
C263        H266   1.083       .  S
C264        C265   1.378       .  A
C264        H267   1.083       .  S
N268        C272   1.353       .  A
N268        C269   1.355       .  A
C269        C407   1.468       .  S
C269        C270   1.387       .  A
C270        C271   1.371       .  A
C270        H273   1.083       .  S
C271        C272   1.378       .  A
C271        H274   1.082       .  S
N275        C276   1.354       .  A
C276        C389   1.468       .  S
C277        C278   1.373       .  A
C277        H280   1.083       .  S
C278        C279   1.376       .  A
C278        H281   1.083       .  S
N282        C283   1.353       .  A
C283        C368   1.468       .  S
C284        C285   1.374       .  A
C284        H287   1.083       .  S
C285        C286   1.377       .  A
C285        H288   1.082       .  S
N289        C725   1.361       .  A
N289        C290   1.366       .  A
C290        C353   1.491       .  S
C290        C723   1.389       .  A
C291        C722   1.389       .  A
C291        C292   1.367   1_655  A
C291        H294   1.082       .  S
C292        C293   1.375       .  A
C292        H295   1.083       .  S
C293        N721   1.361   1_455  A
N296        C300   1.354       .  A
N296        C297   1.358       .  A
C297        C332   1.481       .  S
C297        C730   1.390       .  A
C298        C729   1.390       .  A
C298        C299   1.376   1_655  A
C298        H301   1.083       .  S
C299        C732   1.376       .  A
C299        H302   1.083       .  S
C300        C689   1.464       .  S
C300        C731   1.376       .  A
Fe303       O319   2.086   1_455  S
Fe303       O309   2.074       .  S
Fe303       O316   2.073   1_554  S
Fe303       O308   2.080   1_554  S
Fe303       O530   1.972   1_455  S
Fe304       O307   2.071   1_556  S
Fe304       O320   2.068       .  S
Fe304       O314   1.980   1_556  S
Fe305       O323   2.041       .  S
Fe305       O310   2.050   1_554  S
Fe305       O749   2.054       .  S
Fe305       O738   2.050   1_554  S
Fe305       O314   1.991       .  S
O306       Fe737   2.050   1_456  S
O306        C313   1.265       .  A
O307        C321   1.269       .  A
O310        C322   1.264       .  A
O311        C324   1.268       .  A
C312        O317   1.265       .  A
C312        C371   1.469       .  S
C313        C386   1.468       .  S
O314       Fe519   1.972   1_565  S
O315        C318   1.270       .  A
O316        C750   1.270   1_455  A
O317       Fe737   2.054   1_455  S
C318        O748   1.270       .  A
C318        C335   1.483       .  S
O319        C756   1.271       .  A
O320        C322   1.268       .  A
C321        O323   1.263       .  A
C321        C422   1.454       .  S
C322        C404   1.457       .  S
C324        O751   1.271       .  A
C324        C350   1.479       .  S
C325        N331   1.349       .  A
C325        C330   1.383       .  A
C325        C326   1.409       .  A
C326        C327   1.408       .  A
C326        H337   1.082       .  S
C327        C336   1.385       .  A
C327        C328   1.383       .  A
C328        N766   1.346       .  A
C328        C761   1.406       .  A
C329        C760   1.406   1_455  A
C329        C762   1.406   1_455  A
C329        H338   1.083       .  S
C330        C761   1.406       .  A
C330        C333   1.379       .  A
N331        C332   1.355       .  A
N331        H341   1.039       .  S
C332        C333   1.400       .  A
C333        H771   1.083       .  S
N334        C760   1.346       .  A
N334        C767   1.357       .  A
N334        H342   1.045   1_655  S
C335        N766   1.357       .  A
C335        C336   1.399       .  A
C336        H340   1.082       .  S
H339        C765   1.083   1_455  S
C343        N781   1.350       .  A
C343        C348   1.383       .  A
C343        C776   1.414       .  A
C344        C775   1.414       .  A
C344        C777   1.413       .  A
C344        H355   1.082       .  S
C345        C776   1.413       .  A
C345        C786   1.394       .  A
C345        C346   1.382       .  A
C346        N352   1.340       .  A
C346        C347   1.405       .  A
C347        C348   1.401       .  A
C347        H356   1.082       .  S
C348        C351   1.383       .  A
N349        C775   1.350       .  A
N349        C782   1.360       .  A
N349        H359   1.045       .  S
C350        N781   1.360       .  A
C350        C351   1.393       .  A
C351        H357   1.082       .  S
N352        C353   1.358       .  A
N352        H360   1.043       .  S
C353        C786   1.404       .  A
C354        C777   1.394       .  A
C354        C785   1.404       .  A
C354        H358   1.082       .  S
C361        N367   1.342       .  A
C361        C366   1.384       .  A
C361        C362   1.405   1_565  A
C362        C363   1.402   1_545  A
C363        C372   1.379   1_565  A
C363        C364   1.384       .  A
C364        N370   1.343       .  A
C364        C365   1.403       .  A
C365        C366   1.403       .  A
C365        H374   1.082       .  S
C366        C369   1.379       .  A
N367        C368   1.356       .  A
C368        C369   1.395       .  A
C369        H375   1.082       .  S
N370        C371   1.356       .  A
N370        H378   1.045       .  S
C371        C372   1.395   1_565  A
C379        N385   1.343       .  A
C379        C384   1.384       .  A
C379        C380   1.403       .  A
C380        C381   1.402       .  A
C380        H391   1.082       .  S
C381        C390   1.379       .  A
C381        C382   1.384       .  A
C382        N388   1.342       .  A
C382        C383   1.405   1_565  A
C383        C384   1.403   1_545  A
C383        H392   1.083       .  S
C384        C387   1.380   1_565  A
N385        C386   1.355       .  A
N385        H395   1.045       .  S
C386        C387   1.395   1_565  A
C387        H393   1.083       .  S
N388        C389   1.356       .  A
N388        H396   1.045   1_565  S
C389        C390   1.395       .  A
C390        H394   1.083       .  S
C397        N403   1.340       .  A
C397        C402   1.385       .  A
C397        C398   1.399       .  A
C398        C399   1.399       .  A
C398        H409   1.083       .  S
C399        C408   1.372       .  A
C399        C400   1.385       .  A
C400        N406   1.343       .  A
C400        C401   1.404       .  A
C401        C402   1.402       .  A
C401        H410   1.082       .  S
C402        C405   1.378       .  A
N403        C404   1.352       .  A
N403        H413   1.045       .  S
C404        C405   1.393       .  A
C405        H411   1.082       .  S
N406        C407   1.357       .  A
N406        H414   1.045       .  S
C407        C408   1.394       .  A
C408        H412   1.083       .  S
C415        N421   1.340       .  A
C415        C420   1.384       .  A
C415        C416   1.399       .  A
C416        C417   1.399       .  A
C416        H427   1.083       .  S
C417        C426   1.370       .  A
C417        C418   1.385       .  A
C418        N424   1.342       .  A
C418        C419   1.402       .  A
C419        C420   1.400       .  A
C419        H428   1.082       .  S
C420        C423   1.376       .  A
N421        C422   1.352       .  A
N421        H431   1.045       .  S
C422        C423   1.392       .  A
C423        H429   1.082       .  S
N424        C425   1.356       .  A
N424        H432   1.045       .  S
C425        C426   1.394       .  A
C426        H430   1.083       .  S
Fe433       O449   2.105       .  S
Fe433       O439   2.098       .  S
Fe433       O446   2.111       .  S
Fe433       O438   2.097       .  S
Fe433       O444   1.977       .  S
Fe434       O437   2.026       .  S
Fe434       O441   2.050       .  S
Fe434       O445   2.048       .  S
Fe434       O450   2.028       .  S
Fe434       O444   1.974       .  S
Fe435       O453   2.078       .  S
Fe435       O440   2.075       .  S
Fe435       O447   2.095       .  S
Fe435       O436   2.104       .  S
Fe435       O444   1.987       .  S
O436        C443   1.273       .  A
O437        C451   1.262       .  A
O438        C443   1.276       .  A
O439        C442   1.278       .  A
O440        C452   1.271       .  A
O441        C454   1.265       .  A
C442        O447   1.272       .  A
C442        N512   1.451       .  S
C443        N505   1.454       .  S
O445        C448   1.265       .  A
O446        C448   1.276       .  A
C448        N477   1.441       .  S
O449        C454   1.273       .  A
O450        C452   1.261       .  A
C451        O453   1.270       .  A
C451        C495   1.458       .  S
C452        C502   1.461       .  S
C454        N484   1.442       .  S
Fe455       O471   2.061       .  S
Fe455       O461   2.045       .  S
Fe455       O468   2.062       .  S
Fe455       O460   2.045       .  S
Fe455       O466   1.978       .  S
Fe456       O459   2.083       .  S
Fe456       O463   2.108       .  S
Fe456       O467   2.104       .  S
Fe456       O472   2.082       .  S
Fe456       O466   1.991       .  S
Fe457       O475   2.027       .  S
Fe457       O462   2.037       .  S
Fe457       O469   2.058       .  S
Fe457       O458   2.053       .  S
Fe457       O466   1.984       .  S
O458        C465   1.265       .  A
O459        C473   1.271       .  A
O460        C465   1.265       .  A
O461        C464   1.265       .  A
O462        C474   1.264       .  A
O463        C476   1.275       .  A
C464        O469   1.266       .  A
C464        C488   1.460       .  S
C465        C481   1.456       .  S
O467        C470   1.274       .  A
O468        C470   1.268       .  A
C470        N498   1.445       .  S
O471        C476   1.269       .  A
O472        C474   1.274       .  A
C473        O475   1.263       .  A
C474        C509   1.465       .  S
C476        N491   1.445       .  S
N477        C481   1.351       .  A
N477        C478   1.353       .  A
C478        C641   1.465       .  S
C478        C479   1.387       .  A
C479        C480   1.372       .  A
C479        H482   1.083       .  S
C480        C481   1.378       .  A
C480        H483   1.083       .  S
N484        C488   1.353       .  A
N484        C485   1.355       .  A
C485        C623   1.468       .  S
C485        C486   1.387       .  A
C486        C487   1.371       .  A
C486        H489   1.083       .  S
C487        C488   1.378       .  A
C487        H490   1.082       .  S
N491        C711   1.354       .  A
N491        C492   1.354       .  A
C492        C605   1.468       .  S
C492        C709   1.387       .  A
C493        C708   1.387   1_545  A
C493        C494   1.373       .  A
C493        H496   1.083   1_545  S
C494        C495   1.376       .  A
C494        H497   1.083       .  S
C495        N707   1.354   1_545  A
N498        C718   1.356       .  A
N498        C499   1.353       .  A
C499        C584   1.468       .  S
C499        C716   1.387       .  A
C500        C715   1.387   1_545  A
C500        C501   1.374       .  A
C500        H503   1.083       .  S
C501        C502   1.377       .  A
C501        H504   1.082       .  S
C502        N714   1.356   1_545  A
N505        C506   1.366       .  A
C506        C569   1.491       .  S
C507        C508   1.367       .  A
C507        H510   1.082       .  S
C508        C509   1.375       .  A
C508        H511   1.083       .  S
N512        C516   1.354   1_655  A
N512        C513   1.358       .  A
C513        C548   1.481       .  S
C514        C515   1.376       .  A
C514        H517   1.083       .  S
C515        H518   1.083       .  S
Fe519       O535   2.086       .  S
Fe519       O525   2.074       .  S
Fe519       O532   2.073   1_554  S
Fe519       O524   2.080   1_554  S
Fe520       O523   2.071   1_556  S
Fe520       O743   2.073   1_556  S
Fe520       O747   2.081       .  S
Fe520       O536   2.068       .  S
Fe520       O530   1.980   1_556  S
Fe521       O539   2.041       .  S
Fe521       O526   2.050   1_554  S
Fe521       O530   1.991       .  S
O522        C529   1.265       .  A
O523        C537   1.269       .  A
O524        C745   1.270   1_545  A
O525        C744   1.270   1_545  A
O526        C538   1.264       .  A
O527       Fe736   2.073   1_544  S
O527        C540   1.268       .  A
C528        O741   1.270       .  A
C528        O533   1.265       .  A
C528        C587   1.469       .  S
C529        O740   1.270       .  A
C529        C602   1.468       .  S
O531       Fe736   2.081   1_545  S
O531        C534   1.270       .  A
C534        C551   1.483       .  S
O536        C538   1.268       .  A
C537        O539   1.263       .  A
C537        C638   1.454       .  S
C538        C620   1.457       .  S
C540        C566   1.479       .  S
C541        N547   1.349       .  A
C541        C546   1.383       .  A
C541        C542   1.409       .  A
C542        C543   1.408       .  A
C542        H553   1.082       .  S
C543        C552   1.385       .  A
C543        C544   1.383       .  A
C545        H554   1.083       .  S
C546        C549   1.379       .  A
N547        C548   1.355       .  A
N547        H557   1.039       .  S
C548        C549   1.400       .  A
N550        H558   1.045       .  S
C551        C552   1.399       .  A
C552        H556   1.082       .  S
C559        C564   1.383       .  A
C560        H571   1.082       .  S
C561        C562   1.382       .  A
C562        N568   1.340       .  A
C562        C563   1.405       .  A
C563        C564   1.401       .  A
C563        H572   1.082       .  S
C564        C567   1.383       .  A
N565        H575   1.045       .  S
C566        C567   1.393       .  A
C567        H573   1.082       .  S
N568        C569   1.358       .  A
N568        H576   1.043       .  S
C570        H574   1.082       .  S
C577        N583   1.342       .  A
C577        C582   1.384       .  A
C577        C578   1.405       .  A
C578        C579   1.402       .  A
C578        H805   1.083       .  S
C579        C588   1.379       .  A
C579        C580   1.384       .  A
C580        N586   1.343       .  A
C580        C581   1.403       .  A
C581        C582   1.403       .  A
C581        H590   1.082       .  S
C582        C585   1.379       .  A
N583        C584   1.356       .  A
N583        H809   1.045       .  S
C584        C585   1.395       .  A
C585        H591   1.082       .  S
N586        C587   1.356       .  A
N586        H594   1.045       .  S
C587        C588   1.395       .  A
C588        H808   1.082       .  S
H589        C794   1.083       .  S
H592        C804   1.082       .  S
H593        N799   1.045   1_545  S
C595        N601   1.343       .  A
C595        C600   1.384       .  A
C595        C596   1.403       .  A
C596        C597   1.402       .  A
C596        H607   1.082       .  S
C597        C606   1.379       .  A
C597        C598   1.384       .  A
C598        N604   1.342       .  A
C598        C599   1.405       .  A
C599        C600   1.403       .  A
C599        H608   1.083       .  S
C600        C603   1.380       .  A
N601        C602   1.355       .  A
N601        H611   1.045       .  S
C602        C603   1.395       .  A
C603        H609   1.083       .  S
N604        C605   1.356       .  A
N604        H612   1.045       .  S
C605        C606   1.395       .  A
C606        H610   1.083       .  S
C613        N619   1.340       .  A
C613        C618   1.385       .  A
C613        C614   1.399       .  A
C614        C615   1.399       .  A
C614        H625   1.083       .  S
C615        C624   1.372       .  A
C615        C616   1.385       .  A
C616        N622   1.343       .  A
C616        C617   1.404       .  A
C617        C618   1.402       .  A
C617        H626   1.082       .  S
C618        C621   1.378       .  A
N619        C620   1.352       .  A
N619        H629   1.045       .  S
C620        C621   1.393       .  A
C621        H627   1.082       .  S
N622        C623   1.357       .  A
N622        H630   1.045       .  S
C623        C624   1.394       .  A
C624        H628   1.083       .  S
C631        N637   1.340       .  A
C631        C636   1.384       .  A
C631        C632   1.399       .  A
C632        C633   1.400       .  A
C632        H643   1.083       .  S
C633        C642   1.370       .  A
C633        C634   1.385       .  A
C634        N640   1.342       .  A
C634        C635   1.402       .  A
C635        C636   1.400       .  A
C635        H644   1.082       .  S
C636        C639   1.376       .  A
N637        C638   1.352       .  A
N637        H647   1.045       .  S
C638        C639   1.392       .  A
C639        H645   1.082       .  S
N640        C641   1.356       .  A
N640        H648   1.045       .  S
C641        C642   1.394       .  A
C642        H646   1.083       .  S
Fe649       O665   2.105       .  S
Fe649       O655   2.098       .  S
Fe649       O662   2.111       .  S
Fe649       O654   2.097       .  S
Fe649       O660   1.977       .  S
Fe650       O653   2.026       .  S
Fe650       O657   2.050       .  S
Fe650       O661   2.048       .  S
Fe650       O666   2.028       .  S
Fe650       O660   1.974       .  S
Fe651       O669   2.078       .  S
Fe651       O656   2.075       .  S
Fe651       O663   2.095       .  S
Fe651       O652   2.104       .  S
Fe651       O660   1.987       .  S
O652        C659   1.273       .  A
O653        C667   1.262       .  A
O654        C659   1.276       .  A
O655        C658   1.278       .  A
O656        C668   1.271       .  A
O657        C670   1.265       .  A
C658        O663   1.272       .  A
C658        N728   1.451       .  S
C659        N721   1.454       .  S
O661        C664   1.265       .  A
O662        C664   1.276       .  A
C664        N693   1.441       .  S
O665        C670   1.273       .  A
O666        C668   1.261       .  A
C667        O669   1.270       .  A
C667        C711   1.458       .  S
C668        C718   1.461       .  S
C670        N700   1.442       .  S
Fe671       O687   2.061       .  S
Fe671       O677   2.045       .  S
Fe671       O684   2.062       .  S
Fe671       O676   2.044       .  S
Fe671       O682   1.978       .  S
Fe672       O675   2.083       .  S
Fe672       O679   2.108       .  S
Fe672       O683   2.104       .  S
Fe672       O688   2.083       .  S
Fe672       O682   1.991       .  S
Fe673       O691   2.027       .  S
Fe673       O678   2.037       .  S
Fe673       O685   2.058       .  S
Fe673       O674   2.053       .  S
Fe673       O682   1.984       .  S
O674        C681   1.265       .  A
O675        C689   1.271       .  A
O676        C681   1.265       .  A
O677        C680   1.265       .  A
O678        C690   1.264       .  A
O679        C692   1.275       .  A
C680        O685   1.266       .  A
C680        C704   1.460       .  S
C681        C697   1.456       .  S
O683        C686   1.274       .  A
O684        C686   1.268       .  A
C686        N714   1.445       .  S
O687        C692   1.269       .  A
O688        C690   1.274       .  A
C689        O691   1.263       .  A
C690        C725   1.465       .  S
C692        N707   1.445       .  S
N693        C697   1.351       .  A
N693        C694   1.353       .  A
C694        C857   1.465       .  S
C694        C695   1.387       .  A
C695        C696   1.372       .  A
C695        H698   1.083       .  S
C696        C697   1.378       .  A
C696        H699   1.083       .  S
N700        C704   1.353       .  A
N700        C701   1.355       .  A
C701        C839   1.468       .  S
C701        C702   1.387       .  A
C702        C703   1.371       .  A
C702        H705   1.083       .  S
C703        C704   1.378       .  A
C703        H706   1.082       .  S
N707        C708   1.354       .  A
C708        C821   1.468       .  S
C709        C710   1.373       .  A
C709        H712   1.083       .  S
C710        C711   1.376       .  A
C710        H713   1.083       .  S
N714        C715   1.353       .  A
C715        C800   1.468       .  S
C716        C717   1.374       .  A
C716        H719   1.083       .  S
C717        C718   1.377       .  A
C717        H720   1.082       .  S
N721        C722   1.366       .  A
C722        C785   1.491       .  S
C723        C724   1.367       .  A
C723        H726   1.082       .  S
C724        C725   1.375       .  A
C724        H727   1.083       .  S
N728        C732   1.354   1_655  A
N728        C729   1.358       .  A
C729        C764   1.481       .  S
C730        C731   1.376       .  A
C730        H733   1.083       .  S
C731        H734   1.083       .  S
Fe735       O751   2.086       .  S
Fe735       O741   2.074       .  S
Fe735       O748   2.073   1_554  S
Fe735       O740   2.080   1_554  S
Fe736       O739   2.071   1_556  S
Fe736       O752   2.068       .  S
Fe736       O746   1.980   1_556  S
Fe737       O755   2.041       .  S
Fe737       O742   2.050   1_554  S
Fe737       O746   1.991       .  S
O738        C745   1.265       .  A
O739        C753   1.269       .  A
O742        C754   1.264       .  A
O743        C756   1.268       .  A
C744        O749   1.265       .  A
C744        C803   1.469       .  S
C745        C818   1.468       .  S
O747        C750   1.270       .  A
C750        C767   1.483       .  S
O752        C754   1.268       .  A
C753        O755   1.263       .  A
C753        C854   1.454       .  S
C754        C836   1.457       .  S
C756        C782   1.479       .  S
C757        N763   1.349       .  A
C757        C762   1.383       .  A
C757        C758   1.409       .  A
C758        C759   1.408       .  A
C758        H769   1.082       .  S
C759        C768   1.385       .  A
C759        C760   1.383       .  A
C761        H770   1.083       .  S
C762        C765   1.379       .  A
N763        C764   1.355       .  A
N763        H773   1.039       .  S
C764        C765   1.400       .  A
N766        H774   1.045       .  S
C767        C768   1.399       .  A
C768        H772   1.082       .  S
C775        C780   1.383       .  A
C776        H787   1.082       .  S
C777        C778   1.382       .  A
C778        N784   1.340       .  A
C778        C779   1.405       .  A
C779        C780   1.401       .  A
C779        H788   1.082       .  S
C780        C783   1.383       .  A
N781        H791   1.045       .  S
C782        C783   1.393       .  A
C783        H789   1.082       .  S
N784        C785   1.358       .  A
N784        H792   1.043       .  S
C786        H790   1.082       .  S
C793        N799   1.342       .  A
C793        C798   1.384       .  A
C793        C794   1.405   1_565  A
C794        C795   1.402   1_545  A
C795        C804   1.379   1_565  A
C795        C796   1.384       .  A
C796        N802   1.343       .  A
C796        C797   1.403       .  A
C797        C798   1.403       .  A
C797        H806   1.082       .  S
C798        C801   1.379       .  A
N799        C800   1.356       .  A
C800        C801   1.395       .  A
C801        H807   1.082       .  S
N802        C803   1.356       .  A
N802        H810   1.045       .  S
C803        C804   1.395   1_565  A
C811        N817   1.343       .  A
C811        C816   1.384       .  A
C811        C812   1.403       .  A
C812        C813   1.402       .  A
C812        H823   1.082       .  S
C813        C822   1.379       .  A
C813        C814   1.384       .  A
C814        N820   1.342       .  A
C814        C815   1.405   1_565  A
C815        C816   1.403   1_545  A
C815        H824   1.083       .  S
C816        C819   1.380   1_565  A
N817        C818   1.355       .  A
N817        H827   1.045       .  S
C818        C819   1.395   1_565  A
C819        H825   1.083       .  S
N820        C821   1.356       .  A
N820        H828   1.045   1_565  S
C821        C822   1.395       .  A
C822        H826   1.083       .  S
C829        N835   1.340       .  A
C829        C834   1.385       .  A
C829        C830   1.399       .  A
C830        C831   1.399       .  A
C830        H841   1.083       .  S
C831        C840   1.372       .  A
C831        C832   1.385       .  A
C832        N838   1.343       .  A
C832        C833   1.404       .  A
C833        C834   1.402       .  A
C833        H842   1.082       .  S
C834        C837   1.378       .  A
N835        C836   1.352       .  A
N835        H845   1.045       .  S
C836        C837   1.393       .  A
C837        H843   1.082       .  S
N838        C839   1.357       .  A
N838        H846   1.045       .  S
C839        C840   1.394       .  A
C840        H844   1.083       .  S
C847        N853   1.340       .  A
C847        C852   1.384       .  A
C847        C848   1.399       .  A
C848        C849   1.399       .  A
C848        H859   1.083       .  S
C849        C858   1.370       .  A
C849        C850   1.385       .  A
C850        N856   1.342       .  A
C850        C851   1.402       .  A
C851        C852   1.400       .  A
C851        H860   1.082       .  S
C852        C855   1.376       .  A
N853        C854   1.352       .  A
N853        H863   1.045       .  S
C854        C855   1.392       .  A
C855        H861   1.082       .  S
N856        C857   1.356       .  A
N856        H864   1.045       .  S
C857        C858   1.394       .  A
C858        H862   1.083       .  S
