geometry optimzed in LAMMPS
_audit_creation_date              2020-11-30 
_audit_creation_method            'lammps2cif' 
_symmetry_space_group_name_H-M    'P1' 
_symmetry_Int_Tables_number       1 
_symmetry_cell_setting            triclinic 
loop_ 
_symmetry_equiv_pos_as_xyz 
  x,y,z 
_cell_length_a                    40.40007748 
_cell_length_b                    40.04839986587256 
_cell_length_c                    33.629180906484486 
_cell_angle_alpha                 92.0394342641231 
_cell_angle_beta                  92.26785952672995 
_cell_angle_gamma                 123.7848042118866 
loop_ 
_atom_site_label 
_atom_site_type_symbol 
_atom_site_fract_x 
_atom_site_fract_y 
_atom_site_fract_z 
_atom_site_charge 
C1          C  0.05691652  0.03665397  0.12423593     0.04700
C2          C  0.05235761  0.06631006  0.14163665    -0.11400
C3          C  0.08174262  0.09576857  0.16955846     0.02200
C4          C  0.11738547  0.09773428  0.17489506    -0.10000
C5          C  0.11690236  0.06270767  0.16812995     0.04700
C6          C  0.08718126  0.03263321  0.14053590    -0.09400
H7          H  0.02559297  0.06561898  0.13442729     0.10300
H8          H  0.14394745  0.12477022  0.18806912     0.07800
H9          H  0.08735405  0.00637219  0.13207327     0.07700
C10         C  0.16919700  0.04275866  0.25456690     0.47000
H11         H  0.17089322  0.04523716  0.28771513    -0.02000
C12         C  0.16484628  0.03682235  0.17677149     0.47100
H13         H  0.16325226  0.03440579  0.14362895    -0.02000
C14         C  0.14592972  0.05864362  0.23518458    -0.15700
C15         C  0.21007883  0.06576536  0.23732628    -0.15400
C16         C  0.14900410  0.99935383  0.23684800    -0.15800
C17         C  0.14335786  0.05546461  0.19382131    -0.15800
C18         C  0.20777065  0.06273089  0.19593418    -0.15300
C19         C  0.14667241  0.99603746  0.19533092    -0.15700
C20         C  0.06127325  0.14793406  0.25574874     0.47000
H21         H  0.06400312  0.14999831  0.28890219    -0.02000
C22         C  0.05560297  0.14325252  0.17793878     0.47100
H23         H  0.05342503  0.14149749  0.14479173    -0.02000
C24         C  0.08508561  0.18910290  0.23784068    -0.15700
C25         C  0.07602990  0.12335064  0.23697753    -0.15400
C26         C  0.01824234  0.12842098  0.23793950    -0.15800
C27         C  0.08226751  0.18647345  0.19656624    -0.15800
C28         C  0.07339760  0.12113494  0.19556873    -0.15300
C29         C  0.01515882  0.12594805  0.19626411    -0.15700
C30         C  0.28192106  0.14459703  0.13379219     0.04700
C31         C  0.24561569  0.11686778  0.14963245    -0.11400
C32         C  0.24239059  0.08624641  0.17141469     0.02200
C33         C  0.27470315  0.08217815  0.17348757    -0.10000
C34         C  0.31310079  0.11623242  0.16964281     0.04700
C35         C  0.31649801  0.14625424  0.14636912    -0.09400
H36         H  0.22002670  0.11872201  0.14455374     0.10300
H37         H  0.27082234  0.05485066  0.18291341     0.07800
H38         H  0.01104843  0.17026584  0.13671283     0.07700
C39         C  0.16883139  0.26145969  0.13954409     0.04700
C40         C  0.17194861  0.29632145  0.15463671    -0.11400
C41         C  0.14087879  0.29326883  0.17487169     0.02200
C42         C  0.10560981  0.25521924  0.17631717    -0.10000
C43         C  0.10711495  0.22121524  0.17224376     0.04700
C44         C  0.13768374  0.22374444  0.15121868    -0.09400
H45         H  0.19575119  0.99147444  0.14533804     0.10300
H46         H  0.07915637  0.25239740  0.18625119     0.07800
H47         H  0.13796071  0.19711926  0.14555046     0.07700
C48         C  0.29414457  0.14836970  0.30847338     0.04700
C49         C  0.99534528  0.15626968  0.29061367    -0.11400
C50         C  0.98695126  0.12432479  0.26392794     0.02200
C51         C  0.27963401  0.08613640  0.25657404    -0.10000
C52         C  0.24794660  0.08989476  0.26341707     0.04700
C53         C  0.25468269  0.11968168  0.29240484    -0.09400
H54         H  0.02598316  0.18151721  0.29719537     0.10300
H55         H  0.27387657  0.05833823  0.24352583     0.07800
H56         H  0.23003237  0.12124353  0.30104482     0.07700
C57         C  0.17547417  0.27113683  0.30148604     0.04700
C58         C  0.17671464  0.30499064  0.28920443    -0.11400
C59         C  0.14457154  0.29956011  0.26530758     0.02200
C60         C  0.10969102  0.26059829  0.25983551    -0.10000
C61         C  0.11237023  0.22728646  0.26288834     0.04700
C62         C  0.14495770  0.23255290  0.28541830    -0.09400
H63         H  0.20306743  0.33493069  0.29683885     0.10300
H64         H  0.08230988  0.25635602  0.24801388     0.07800
H65         H  0.14646716  0.20684884  0.29061029     0.07700
C66         C  0.06075208  0.03762251  0.29558469     0.04700
C67         C  0.09061323  0.03455659  0.27988100    -0.11400
C68         C  0.12017678  0.06586127  0.25923307     0.02200
C69         C  0.12103611  0.10122871  0.25790734    -0.10000
C70         C  0.08540863  0.09889867  0.26151624     0.04700
C71         C  0.05611821  0.06825597  0.28353421    -0.09400
H72         H  0.09120915  0.00818938  0.28424198     0.10300
H73         H  0.14712925  0.12845319  0.24893347     0.07800
H74         H  0.02966684  0.06751063  0.28998283     0.07700
O75         O  0.04370958  0.26496332  0.48998792    -0.79300
O76         O  0.25016063  0.27054284  0.39355420    -0.64000
O77         O  0.32284693  0.27599795  0.47232886    -1.10600
C78         C  0.20678372  0.20295289  0.54420584     1.07600
O79         O  0.22336553  0.28955281  0.43732255    -0.77200
O80         O  0.24294682  0.29691174  0.51772377    -0.64800
Ni81       Ni  0.03089554  0.28567049  0.44492250     1.34900
C82         C  0.27436597  0.30738964  0.53904920     0.86300
O83         O  0.32866062  0.30687189  0.39815690    -0.77700
O84         O  0.02628496  0.30972533  0.39805283    -0.88000
C85         C  0.22839570  0.28306875  0.40143581     0.85900
O86         O  0.32524654  0.21756269  0.42171713    -0.66200
O87         O  0.19144495  0.21650604  0.52147389    -0.85500
C88         C  0.29419426  0.20779488  0.40016885     0.86700
C89         C  0.00978058  0.32821185  0.38959857     1.08300
H90         H  0.23140279  0.21262527  0.45472639     0.40100
O91         O  0.24699961  0.24000444  0.46636099    -1.08200
O92         O  0.29294579  0.29045028  0.53574670    -0.64800
Ni93       Ni  0.28266710  0.24301526  0.50705120     1.26300
O94         O  0.27693821  0.22613880  0.40260715    -0.65000
O95         O  0.24150923  0.21017901  0.54124690    -0.77300
C96         C  0.03089792  0.25566617  0.52455462     0.86100
O97         O  0.31988341  0.24596401  0.54515916    -0.64500
Ni98       Ni  0.20956613  0.25285953  0.47935679     1.27400
Ni99       Ni  0.28725961  0.27336673  0.43179614     1.26100
H100        H  0.33876662  0.30337380  0.48394020     0.40600
O101        O  0.30334770  0.18637309  0.00135820    -0.79300
O102        O  0.28445769  0.30564515  0.89821085    -0.64000
O103        O  0.31276057  0.25599294  0.97350093    -1.10600
C104        C  0.21661530  0.24912376  0.04990265     1.07600
O105        O  0.26538478  0.99883570  0.93671456    -0.77200
O106        O  0.30334259  0.00092169  0.00821285    -0.64800
Ni107      Ni  0.31768902  0.21382944  0.95283957     1.34900
C108        C  0.31730216  0.32504249  0.03628999     0.86300
O109        O  0.34428946  0.29648034  0.90507750    -0.77700
O110        O  0.33619846  0.23686439  0.90273271    -0.88000
C111        C  0.27435214  0.99252883  0.90277566     0.85900
O112        O  0.26388274  0.18267460  0.92994611    -0.66200
O113        O  0.23227970  0.28447247  0.03823557    -0.85500
C114        C  0.25055397  0.19503957  0.90338200     0.86700
C115        C  0.35095256  0.27153142  0.88984076     1.08300
H116        H  0.22953841  0.24535914  0.95142884     0.40100
O117        O  0.25442185  0.26521173  0.96619477    -1.08200
O118        O  0.30134825  0.28755241  0.03955887    -0.64800
Ni119      Ni  0.26772903  0.23977509  0.00416016     1.26300
O120        O  0.26509478  0.23237328  0.90028639    -0.65000
O121        O  0.22220958  0.22395807  0.03333308    -0.77300
C122        C  0.29384045  0.19209999  0.03522926     0.86100
O123        O  0.28165632  0.21469771  0.04146600    -0.64500
Ni124      Ni  0.25067243  0.30794659  0.98784713     1.27400
Ni125      Ni  0.29903869  0.28089575  0.93512788     1.26100
H126        H  0.33760456  0.27633544  0.98841798     0.40600
C127        C  0.27324063  0.03008050  0.63423105     0.04700
C128        C  0.24137683  0.02828806  0.65179287    -0.11400
C129        C  0.24839817  0.06062954  0.67676334     0.02200
C130        C  0.28690370  0.09549129  0.68040056    -0.10000
C131        C  0.31908696  0.09219635  0.67509672     0.04700
C132        C  0.31270773  0.06051579  0.64892705    -0.09400
H133        H  0.21120240  0.00205068  0.64554057     0.10300
H134        H  0.29207878  0.12353907  0.69198401     0.07800
H135        H  0.33762260  0.05897747  0.64123075     0.07700
C136        C  0.28623132  0.04027021  0.80462445     0.04700
C137        C  0.25125673  0.03761255  0.79170489    -0.11400
C138        C  0.25397257  0.06712269  0.76818016     0.02200
C139        C  0.29194431  0.10154070  0.76378096    -0.10000
C140        C  0.32488115  0.09856940  0.76680257     0.04700
C141        C  0.32246081  0.06871120  0.78923578    -0.09400
H142        H  0.22238578  0.01210901  0.79875044     0.10300
H143        H  0.29503198  0.12809114  0.75299045     0.07800
H144        H  0.01214117  0.06141028  0.78868494     0.07700
C145        C  0.17384689  0.03543554  0.68237756     0.47000
H146        H  0.17225056  0.03388901  0.64922092    -0.02000
C147        C  0.17748862  0.03936676  0.76012118     0.47100
H148        H  0.17897901  0.04089361  0.79326482    -0.02000
C149        C  0.21639598  0.05603016  0.70134254    -0.15700
C150        C  0.15754267  0.05871491  0.70046952    -0.15400
C151        C  0.14815147  0.32403650  0.69781393    -0.15800
C152        C  0.21853356  0.05836199  0.74282454    -0.15800
C153        C  0.15913055  0.06057115  0.74187514    -0.15300
C154        C  0.14886423  0.32614349  0.73924690    -0.15700
C155        C  0.06344277  0.13778540  0.67781821     0.47000
H156        H  0.06227738  0.13570098  0.64468956    -0.02000
C157        C  0.06651743  0.14279180  0.75558335     0.47100
H158        H  0.06752921  0.14476295  0.78871242    -0.02000
C159        C  0.08324514  0.18105939  0.69621218    -0.15700
C160        C  0.02201404  0.11379156  0.69434586    -0.15400
C161        C  0.08713240  0.12243359  0.69741050    -0.16200
C162        C  0.08445240  0.18370000  0.73765386    -0.15800
C163        C  0.02394291  0.11640477  0.73574658    -0.15300
C164        C  0.08909018  0.12531991  0.73890807    -0.15700
C165        C  0.06824288  0.24274250  0.62420374     0.04700
C166        C  0.09728618  0.28149397  0.64132503    -0.11400
C167        C  0.12476654  0.28623081  0.67139221     0.02200
C168        C  0.12642046  0.25296053  0.67824213    -0.10000
C169        C  0.09172390  0.21431500  0.67077232     0.04700
C170        C  0.06299928  0.20898936  0.64173019    -0.09400
H171        H  0.09734680  0.30724284  0.63231858     0.10300
H172        H  0.15272903  0.25705792  0.69282149     0.07800
H173        H  0.03694420  0.17918373  0.63288208     0.07700
C174        C  0.17134779  0.14067392  0.63589532     0.04700
C175        C  0.17757382  0.11257857  0.65228065    -0.11400
C176        C  0.14853037  0.08293283  0.67530863     0.02200
C177        C  0.11251592  0.07990046  0.67745485    -0.10000
C178        C  0.11243121  0.11439011  0.67332659     0.04700
C179        C  0.14066840  0.14383536  0.64979709    -0.09400
H180        H  0.20436828  0.11355931  0.64691438     0.10300
H181        H  0.08661771  0.05294609  0.68704018     0.07800
H182        H  0.13944817  0.16944199  0.64325602     0.07700
C183        C  0.17474464  0.14567700  0.81147306     0.04700
C184        C  0.17931989  0.11550884  0.79547126    -0.11400
C185        C  0.15032844  0.08574550  0.76736196     0.02200
C186        C  0.11488876  0.08374109  0.76063844    -0.10000
C187        C  0.11562489  0.11896168  0.76559636     0.04700
C188        C  0.14486364  0.14947538  0.79340283    -0.09400
H189        H  0.20592290  0.11619705  0.80359803     0.10300
H190        H  0.08846961  0.05646329  0.74761744     0.07800
H191        H  0.14459287  0.17588813  0.80067889     0.07700
C192        C  0.06262155  0.25019341  0.79855726     0.04700
C193        C  0.09302090  0.28806186  0.78576248    -0.11400
C194        C  0.12351780  0.29098147  0.76378460     0.02200
C195        C  0.12589317  0.25745029  0.76111044    -0.10000
C196        C  0.09090455  0.21906113  0.76211947     0.04700
C197        C  0.05979909  0.21550769  0.78290994    -0.09400
H198        H  0.09230214  0.31440489  0.79156006     0.10300
H199        H  0.15315628  0.26085340  0.75327235     0.07800
H200        H  0.03364007  0.18588426  0.78715125     0.07700
C201        C  0.21917973  0.16513783  0.87322630    -0.14800
C202        C  0.20311815  0.17529262  0.84395945    -0.30000
H203        H  0.21032382  0.13412457  0.87408649     0.14200
H204        H  0.21019782  0.20575034  0.84430501     0.14700
C205        C  0.03873212  0.27329423  0.85444451    -0.14800
C206        C  0.03296842  0.24462533  0.82721964    -0.30000
H207        H  0.06419016  0.30416266  0.85362780     0.14200
H208        H  0.00703965  0.21407468  0.82900968     0.14700
C209        C  0.28559723  0.01417283  0.83438263    -0.14800
C210        C  0.27096288  0.01342367  0.86961846    -0.30000
H211        H  0.30190694  0.00024410  0.82967772     0.14200
H212        H  0.25756797  0.03026403  0.87485130     0.14700
C213        C  0.19716624  0.16670199  0.60531428    -0.14800
C214        C  0.18258017  0.17796886  0.57587971    -0.30000
H215        H  0.22750890  0.17427876  0.60532208     0.14200
H216        H  0.15171070  0.16889779  0.57508271     0.14700
C217        C  0.28851157  0.33895140  0.57140443    -0.14800
C218        C  0.26309217  0.99922127  0.60172851    -0.30000
H219        H  0.32021736  0.36188109  0.57637627     0.14200
H220        H  0.23270637  0.97243790  0.59913494     0.14700
C221        C  0.05653298  0.25521376  0.55634607    -0.14800
C222        C  0.04161866  0.23767497  0.59035403    -0.30000
H223        H  0.08840619  0.27123378  0.55283053     0.14200
H224        H  0.00961535  0.21930958  0.59336844     0.14700
C225        C  0.03637686  0.00885474  0.32481434    -0.14800
C226        C  0.02279949  0.01877183  0.35569588    -0.30000
H227        H  0.03536253  0.98112177  0.32490106     0.14200
H228        H  0.02306538  0.04605111  0.35679925     0.14700
C229        C  0.20536759  0.27510332  0.33100780    -0.14800
C230        C  0.20813897  0.28975843  0.36845992    -0.30000
H231        H  0.21929984  0.25908532  0.32423705     0.14200
H232        H  0.19123966  0.30257404  0.37565852     0.14700
C233        C  0.27904414  0.17549116  0.36840410    -0.14800
C234        C  0.30452464  0.17796029  0.34237271    -0.30000
H235        H  0.24731024  0.15231927  0.36455141     0.14200
H236        H  0.33576692  0.20281049  0.34725664     0.14700
C237        C  0.19170835  0.23783494  0.08417300    -0.14800
C238        C  0.19846915  0.26648869  0.11174340    -0.30000
H239        H  0.16630349  0.20691915  0.08482461     0.14200
H240        H  0.22465907  0.29691335  0.10995174     0.14700
C241        C  0.28292765  0.17081286  0.10386209    -0.14800
C242        C  0.29722936  0.17118117  0.06845467    -0.30000
H243        H  0.26700828  0.18515119  0.10861770     0.14200
H244        H  0.31031352  0.15405891  0.06317142     0.14700
C245        C  0.02827950  0.00790778  0.09179363    -0.14800
C246        C  0.01311361  0.01927887  0.06288958    -0.30000
H247        H  0.02019886  0.97707375  0.09123207     0.14200
H248        H  0.02304864  0.05063341  0.06218467     0.14700
C249        C  0.05810789  0.36750611  0.12739002     0.04700
C250        C  0.05462609  0.39850311  0.14290751    -0.11400
C251        C  0.08491506  0.42915920  0.16925084     0.02200
C252        C  0.12017295  0.43055900  0.17518304    -0.10000
C253        C  0.11875058  0.39486248  0.17069631     0.04700
C254        C  0.08812251  0.36355584  0.14456892    -0.09400
H255        H  0.02811522  0.39814207  0.13522919     0.10300
H256        H  0.14712394  0.45786625  0.18733774     0.07800
H257        H  0.08769119  0.33669240  0.13757507     0.07700
C258        C  0.17165669  0.37615087  0.25753530     0.47000
H259        H  0.17367674  0.37898966  0.29068172    -0.02000
C260        C  0.16666504  0.36948337  0.17979247     0.47100
H261        H  0.16468772  0.36665281  0.14664464    -0.02000
C262        C  0.14903650  0.39285197  0.23800082    -0.15700
C263        C  0.21250224  0.39834224  0.23984703    -0.15400
C264        C  0.15038824  0.33230307  0.24013782    -0.15800
C265        C  0.14590162  0.38881703  0.19664082    -0.15800
C266        C  0.20976543  0.39482540  0.19846136    -0.15300
C267        C  0.14791663  0.32895921  0.19869633    -0.15700
C268        C  0.06453459  0.48286995  0.25310625     0.47000
H269        H  0.06720821  0.48550233  0.28626379    -0.02000
C270        C  0.05911218  0.47715552  0.17531901     0.47100
H271        H  0.05683189  0.47471152  0.14216795    -0.02000
C272        C  0.08769196  0.52370616  0.23456022    -0.15700
C273        C  0.08004286  0.45873387  0.23541164    -0.15400
C274        C  0.02145724  0.46219932  0.23517502    -0.15800
C275        C  0.08512982  0.52091459  0.19320936    -0.15800
C276        C  0.07752927  0.45588174  0.19399109    -0.15300
C277        C  0.01836745  0.45907121  0.19358581    -0.15700
C278        C  0.28342887  0.47586702  0.13552177     0.04700
C279        C  0.24668772  0.44689596  0.14994855    -0.11400
C280        C  0.24413802  0.41758306  0.17336761     0.02200
C281        C  0.27701593  0.41451922  0.17650550    -0.10000
C282        C  0.31514791  0.44904609  0.17267514     0.04700
C283        C  0.31826110  0.47921751  0.14990386    -0.09400
H284        H  0.22065138  0.44772321  0.14354251     0.10300
H285        H  0.27365413  0.38764988  0.18666668     0.07800
H286        H  0.01453565  0.50561072  0.13776292     0.07700
C287        C  0.16458048  0.59964295  0.12970150     0.04700
C288        C  0.16726341  0.63326557  0.14767819    -0.11400
C289        C  0.13801522  0.62825157  0.17243891     0.02200
C290        C  0.10422520  0.58927353  0.17483356    -0.10000
C291        C  0.10742280  0.55647235  0.16837656     0.04700
C292        C  0.13654553  0.56109305  0.14312675    -0.09400
H293        H  0.19843474  0.32574007  0.15048883     0.10300
H294        H  0.07760063  0.58472778  0.18629667     0.07800
H295        H  0.13809392  0.53555868  0.13537045     0.07700
C296        C  0.29680049  0.48397400  0.30809435     0.04700
C297        C  0.99707244  0.48782322  0.28846179    -0.11400
C298        C  0.98954730  0.45680005  0.26096997     0.02200
C299        C  0.28263905  0.41985201  0.25949234    -0.10000
C300        C  0.25068110  0.42352546  0.26538005     0.04700
C301        C  0.25740955  0.45456202  0.29252285    -0.09400
H302        H  0.02739734  0.51358187  0.29535772     0.10300
H303        H  0.27710742  0.39181417  0.24742062     0.07800
H304        H  0.23266094  0.45632225  0.30030301     0.07700
C305        C  0.17590283  0.60602971  0.30012018     0.04700
C306        C  0.17594297  0.63951154  0.28857488    -0.11400
C307        C  0.14365560  0.63332236  0.26412180     0.02200
C308        C  0.10968605  0.59398744  0.25810130    -0.10000
C309        C  0.11410884  0.56175860  0.25976885     0.04700
C310        C  0.14684139  0.56762862  0.28250777    -0.09400
H311        H  0.20145748  0.66969619  0.29715913     0.10300
H312        H  0.08165203  0.58887620  0.24731684     0.07800
H313        H  0.14936747  0.54242249  0.28695623     0.07700
C314        C  0.06458260  0.37476329  0.29765715     0.04700
C315        C  0.09490590  0.37155170  0.28353820    -0.11400
C316        C  0.12428854  0.40177228  0.26187826     0.02200
C317        C  0.12489886  0.43685039  0.25828366    -0.10000
C318        C  0.08923144  0.43468789  0.26105380     0.04700
C319        C  0.05993314  0.40489966  0.28390550    -0.09400
H320        H  0.09550758  0.34539966  0.28921477     0.10300
H321        H  0.15085968  0.46350551  0.24827255     0.07800
H322        H  0.03329787  0.40415280  0.28940810     0.07700
O323        O  0.01259251  0.56076511  0.49920090    -0.79300
O324        O  0.24868132  0.60309459  0.39265311    -0.64000
O325        O  0.32261236  0.61077314  0.47125357    -1.10600
C326        C  0.20688778  0.53793247  0.54414187     1.07600
O327        O  0.22324433  0.62370581  0.43645291    -0.77200
O328        O  0.24178915  0.63100718  0.51719144    -0.64800
Ni329      Ni  0.02726903  0.59924428  0.45890536     1.34900
C330        C  0.27408521  0.64299951  0.53764826     0.86300
O331        O  0.32714036  0.63910920  0.39600553    -0.77700
O332        O  0.04627461  0.63742991  0.41845062    -0.88000
C333        C  0.22795450  0.61688120  0.40051624     0.85900
O334        O  0.32620008  0.55276715  0.42097816    -0.66200
O335        O  0.19103037  0.55040448  0.52057129    -0.85500
C336        C  0.29478206  0.54215166  0.39960097     0.86700
C337        C  0.03085042  0.65093756  0.39580085     1.08300
H338        H  0.23139164  0.54673099  0.45534863     0.40100
O339        O  0.24684916  0.57438179  0.46621775    -1.08200
O340        O  0.29361308  0.62710203  0.53407812    -0.64800
Ni341      Ni  0.28310235  0.57883976  0.50703110     1.26300
O342        O  0.27618146  0.55909101  0.40264276    -0.65000
O343        O  0.24236112  0.54676728  0.54227913    -0.77300
C344        C  0.00644191  0.56568135  0.53509402     0.86100
O345        O  0.32098978  0.58304560  0.54504808    -0.64500
Ni346      Ni  0.20915899  0.58694028  0.47857302     1.27400
Ni347      Ni  0.28641264  0.60678561  0.43070762     1.26100
H348        H  0.33847189  0.63845051  0.48204162     0.40600
O349        O  0.26286969  0.49400434  0.00151776    -0.79300
O350        O  0.29103749  0.62730041  0.89033580    -0.64000
O351        O  0.30478747  0.57251211  0.97303073    -1.10600
C352        C  0.21437255  0.58812380  0.04004247     1.07600
O353        O  0.26513060  0.33571758  0.93931157    -0.77200
O354        O  0.30473581  0.33822093  0.00991582    -0.64800
Ni355      Ni  0.29934573  0.52233371  0.96120943     1.34900
C356        C  0.31957567  0.65441996  0.03372164     0.86300
O357        O  0.33756304  0.59938065  0.89981527    -0.77700
O358        O  0.33555405  0.54531238  0.92040014    -0.88000
C359        C  0.27345640  0.32920087  0.90502015     0.85900
O360        O  0.25492595  0.49901691  0.92283554    -0.66200
O361        O  0.22980668  0.62132032  0.02321756    -0.85500
C362        C  0.24274302  0.51451331  0.89918880     0.86700
C363        C  0.34771486  0.57425482  0.89793555     1.08300
H364        H  0.23141373  0.57689652  0.94797471     0.40100
O365        O  0.25740392  0.59546570  0.96156916    -1.08200
O366        O  0.30301060  0.61675623  0.03588950    -0.64800
Ni367      Ni  0.26436289  0.56852811  0.00333633     1.26300
O368        O  0.25745307  0.55185826  0.89962374    -0.65000
O369        O  0.22194507  0.56223301  0.03146271    -0.77300
C370        C  0.26702487  0.50820754  0.03690286     0.86100
O371        O  0.27333597  0.54241446  0.04384267    -0.64500
Ni372      Ni  0.25987625  0.64354848  0.97630583     1.27400
Ni373      Ni  0.29807853  0.59903546  0.93054471     1.26100
H374        H  0.33065806  0.59092861  0.98686509     0.40600
C375        C  0.27161079  0.36587587  0.62995258     0.04700
C376        C  0.23934489  0.36318233  0.64765688    -0.11400
C377        C  0.24585645  0.39400715  0.67469510     0.02200
C378        C  0.28447104  0.42889368  0.67944867    -0.10000
C379        C  0.31688389  0.42594600  0.67352444     0.04700
C380        C  0.31080152  0.39548728  0.64592200    -0.09400
H381        H  0.20929658  0.33711612  0.64026765     0.10300
H382        H  0.28947821  0.45671071  0.69146991     0.07800
H383        H  0.33588363  0.39431882  0.63814111     0.07700
C384        C  0.28267992  0.37313727  0.80482966     0.04700
C385        C  0.24778449  0.37048838  0.79154229    -0.11400
C386        C  0.25055877  0.39924863  0.76677647     0.02200
C387        C  0.28889758  0.43339313  0.76216679    -0.10000
C388        C  0.32181134  0.43015063  0.76532557     0.04700
C389        C  0.31889671  0.40048606  0.78853240    -0.09400
H390        H  0.21892328  0.34550914  0.79930898     0.10300
H391        H  0.29237726  0.46028645  0.75197923     0.07800
H392        H  0.01372072  0.39959665  0.78963586     0.07700
C393        C  0.17027577  0.36548119  0.68012636     0.47000
H394        H  0.16888549  0.36371158  0.64698943    -0.02000
C395        C  0.17304766  0.36954072  0.75769749     0.47100
H396        H  0.17412874  0.37130953  0.79082946    -0.02000
C397        C  0.21300392  0.38765597  0.69941564    -0.15700
C398        C  0.15226151  0.38752861  0.69714814    -0.15400
C399        C  0.14813447  0.65830082  0.70082084    -0.15800
C400        C  0.21478266  0.38987690  0.74095580    -0.15800
C401        C  0.15326634  0.38916977  0.73846420    -0.15300
C402        C  0.15041043  0.66046904  0.74208631    -0.15700
C403        C  0.06192987  0.47190723  0.67560557     0.47000
H404        H  0.06041367  0.47010639  0.64246205    -0.02000
C405        C  0.06569565  0.47638321  0.75332880     0.47100
H406        H  0.06714218  0.47815946  0.78648438    -0.02000
C407        C  0.08313760  0.51532275  0.69450137    -0.15700
C408        C  0.02062851  0.44895373  0.69272495    -0.15400
C409        C  0.08437450  0.45474416  0.69438551    -0.16200
C410        C  0.08482366  0.51757609  0.73597445    -0.15800
C411        C  0.02303132  0.45152032  0.73415464    -0.15300
C412        C  0.08625938  0.45718807  0.73579946    -0.15700
C413        C  0.05950509  0.57781879  0.63461442     0.04700
C414        C  0.08922949  0.61590601  0.65228105    -0.11400
C415        C  0.12133852  0.62065659  0.67523606     0.02200
C416        C  0.12438800  0.58756952  0.67727258    -0.10000
C417        C  0.08980349  0.54870945  0.67024504     0.04700
C418        C  0.05831447  0.54373484  0.64569784    -0.09400
H419        H  0.08757037  0.64164359  0.64787686     0.10300
H420        H  0.15164887  0.59165646  0.68923688     0.07800
H421        H  0.03231913  0.51390168  0.63682153     0.07700
C422        C  0.16794128  0.47072629  0.63275915     0.04700
C423        C  0.17280119  0.44137593  0.64837814    -0.11400
C424        C  0.14351714  0.41207804  0.67159090     0.02200
C425        C  0.10804982  0.41034984  0.67398562    -0.10000
C426        C  0.10897902  0.44555924  0.67011445     0.04700
C427        C  0.13799636  0.47490953  0.64711392    -0.09400
H428        H  0.19908774  0.44150811  0.64271015     0.10300
H429        H  0.08171227  0.38367682  0.68333625     0.07800
H430        H  0.13797836  0.50135733  0.64144257     0.07700
C431        C  0.17009643  0.47430326  0.80711698     0.04700
C432        C  0.17407752  0.44412974  0.79057681    -0.11400
C433        C  0.14452303  0.41447649  0.76328124     0.02200
C434        C  0.10947800  0.41328903  0.75680972    -0.10000
C435        C  0.11142510  0.44918382  0.76205941     0.04700
C436        C  0.14092263  0.47919726  0.78981925    -0.09400
H437        H  0.20057320  0.44444702  0.79818951     0.10300
H438        H  0.08264997  0.38636744  0.74382793     0.07800
H439        H  0.14137291  0.50592822  0.79766908     0.07700
C440        C  0.06452988  0.58390978  0.79957893     0.04700
C441        C  0.09545536  0.62195527  0.78807972    -0.11400
C442        C  0.12580067  0.62506730  0.76606429     0.02200
C443        C  0.12724624  0.59107706  0.76069713    -0.10000
C444        C  0.09193394  0.55285211  0.76126019     0.04700
C445        C  0.06126264  0.54930686  0.78290355    -0.09400
H446        H  0.09536530  0.64853439  0.79467706     0.10300
H447        H  0.15381287  0.59425288  0.75067080     0.07800
H448        H  0.03487716  0.51972437  0.78673657     0.07700
C449        C  0.21107093  0.48778407  0.86857944    -0.14800
C450        C  0.19780704  0.50158980  0.84048583    -0.30000
H451        H  0.19984476  0.45599084  0.86779948     0.14200
H452        H  0.20708361  0.53283141  0.84213433     0.14700
C453        C  0.03837038  0.60783836  0.85241603    -0.14800
C454        C  0.03524027  0.57822721  0.82858274    -0.30000
H455        H  0.06056206  0.63928146  0.84833957     0.14200
H456        H  0.01190276  0.54722111  0.83349849     0.14700
C457        C  0.28191600  0.34787397  0.83562220    -0.14800
C458        C  0.27017418  0.35020384  0.87179559    -0.30000
H459        H  0.29568232  0.33144998  0.83027233     0.14200
H460        H  0.25906509  0.36909607  0.87738235     0.14700
C461        C  0.19489631  0.49759082  0.60304758    -0.14800
C462        C  0.18207869  0.51207309  0.57519618    -0.30000
H463        H  0.22450348  0.50333336  0.60236721     0.14200
H464        H  0.15169270  0.50439940  0.57472302     0.14700
C465        C  0.28811377  0.67500460  0.56945940    -0.14800
C466        C  0.26214551  0.33630920  0.59636102    -0.30000
H467        H  0.31945557  0.69944984  0.57284927     0.14200
H468        H  0.23094003  0.31162801  0.59052344     0.14700
C469        C  0.02634293  0.55855900  0.56789573    -0.14800
C470        C  0.03017945  0.57450824  0.60495769    -0.30000
H471        H  0.04227258  0.54464813  0.56084729     0.14200
H472        H  0.01745520  0.59179099  0.61124616     0.14700
C473        C  0.03868559  0.34532534  0.32572194    -0.14800
C474        C  0.02368632  0.35420683  0.35601539    -0.30000
H475        H  0.03737302  0.31742374  0.32547859     0.14200
H476        H  0.02412173  0.38158300  0.35750999     0.14700
C477        C  0.20559340  0.60989328  0.32997362    -0.14800
C478        C  0.20851641  0.62459700  0.36746373    -0.30000
H479        H  0.21894958  0.59325887  0.32345946     0.14200
H480        H  0.19229733  0.63816704  0.37460847     0.14700
C481        C  0.28066916  0.51047338  0.36742886    -0.14800
C482        C  0.30662656  0.51384386  0.34147319    -0.30000
H483        H  0.24912211  0.48673362  0.36340751     0.14200
H484        H  0.33768752  0.53910448  0.34643163     0.14700
C485        C  0.18667794  0.57867824  0.07148832    -0.14800
C486        C  0.19250104  0.60712037  0.09851861    -0.30000
H487        H  0.16236374  0.54745527  0.07338431     0.14200
H488        H  0.21763047  0.63797231  0.09595971     0.14700
C489        C  0.28510516  0.50148980  0.10471793    -0.14800
C490        C  0.26344976  0.48415858  0.07000986    -0.30000
H491        H  0.30688895  0.53385789  0.10859346     0.14200
H492        H  0.24517971  0.45153130  0.06492759     0.14700
C493        C  0.02937830  0.33853091  0.09501380    -0.14800
C494        C  0.01713081  0.35104687  0.06449846    -0.30000
H495        H  0.01892799  0.30704040  0.09581018     0.14200
H496        H  0.02940831  0.38294810  0.06311299     0.14700
C497        C  0.05636208  0.70249359  0.12774878     0.04700
C498        C  0.05261804  0.73336498  0.14305793    -0.11400
C499        C  0.08234276  0.76359400  0.17016738     0.02200
C500        C  0.11770402  0.76526682  0.17624099    -0.10000
C501        C  0.11629966  0.72959570  0.17200095     0.04700
C502        C  0.08616643  0.69853968  0.14537026    -0.09400
H503        H  0.02610219  0.73288416  0.13505324     0.10300
H504        H  0.14465470  0.79277776  0.18798593     0.07800
H505        H  0.08582180  0.67171129  0.13846533     0.07700
C506        C  0.16915080  0.70949837  0.25787964     0.47000
H507        H  0.17131892  0.71174523  0.29103195    -0.02000
C508        C  0.16399182  0.70439021  0.18016340     0.47100
H509        H  0.16200796  0.70244371  0.14700027    -0.02000
C510        C  0.14607425  0.72620117  0.23933200    -0.15700
C511        C  0.20999113  0.73228240  0.24002800    -0.15400
C512        C  0.14822163  0.66595846  0.23959502    -0.15800
C513        C  0.14316476  0.72318624  0.19789246    -0.15800
C514        C  0.20709550  0.72953906  0.19870002    -0.15300
C515        C  0.14535940  0.66334046  0.19801284    -0.15700
C516        C  0.06174470  0.81641698  0.25499536     0.47000
H517        H  0.06513067  0.81948032  0.28813656    -0.02000
C518        C  0.05468546  0.80969616  0.17729140     0.47100
H519        H  0.05178736  0.80692906  0.14413871    -0.02000
C520        C  0.08421198  0.85696864  0.23595140    -0.15700
C521        C  0.07750844  0.79262067  0.23691431    -0.15400
C522        C  0.01824788  0.79517163  0.23793187    -0.15800
C523        C  0.08060229  0.85345867  0.19462588    -0.15800
C524        C  0.07412691  0.78930106  0.19549048    -0.15300
C525        C  0.01443415  0.79167894  0.19634905    -0.15700
C526        C  0.28028726  0.80940243  0.13414855     0.04700
C527        C  0.24432627  0.78240232  0.15092776    -0.11400
C528        C  0.24143400  0.75245892  0.17361884     0.02200
C529        C  0.27359355  0.74810391  0.17539328    -0.10000
C530        C  0.31194624  0.78165752  0.17009373     0.04700
C531        C  0.31495946  0.81112560  0.14630379    -0.09400
H532        H  0.21874834  0.78427393  0.14585269     0.10300
H533        H  0.26972461  0.72097081  0.18540020     0.07800
H534        H  0.00998134  0.83759525  0.13994866     0.07700
C535        C  0.16510034  0.92688596  0.13434593     0.04700
C536        C  0.16915100  0.96225087  0.14985596    -0.11400
C537        C  0.13888888  0.95992347  0.17115968     0.02200
C538        C  0.10348489  0.92199644  0.17315350    -0.10000
C539        C  0.10453210  0.88767706  0.16913337     0.04700
C540        C  0.13404196  0.88947932  0.14675488    -0.09400
H541        H  0.19216102  0.66327140  0.14232880     0.10300
H542        H  0.07726071  0.91952711  0.18324093     0.07800
H543        H  0.13375094  0.86256477  0.14087167     0.07700
C544        C  0.29554432  0.81746441  0.30744048     0.04700
C545        C  0.99517752  0.82201898  0.29131339    -0.11400
C546        C  0.98686022  0.79041142  0.26426103     0.02200
C547        C  0.28020306  0.75317461  0.25828342    -0.10000
C548        C  0.24846037  0.75697075  0.26522729     0.04700
C549        C  0.25586732  0.78816019  0.29250111    -0.09400
H550        H  0.02572209  0.84757188  0.29757899     0.10300
H551        H  0.27432189  0.72502716  0.24608919     0.07800
H552        H  0.23133333  0.79005540  0.30079812     0.07700
C553        C  0.17299880  0.93923993  0.30151128     0.04700
C554        C  0.17448622  0.97294656  0.28822734    -0.11400
C555        C  0.14308636  0.96706745  0.26250881     0.02200
C556        C  0.10848687  0.92824899  0.25672497    -0.10000
C557        C  0.11142477  0.89533148  0.26044448     0.04700
C558        C  0.14329076  0.90069328  0.28453358    -0.09400
H559        H  0.20050329  0.00298220  0.29630064     0.10300
H560        H  0.08114413  0.92383092  0.24457899     0.07800
H561        H  0.14482558  0.87510301  0.29027496     0.07700
C562        C  0.06588218  0.71339323  0.30429432     0.04700
C563        C  0.09504974  0.70840235  0.28921424    -0.11400
C564        C  0.12260751  0.73638230  0.26418559     0.02200
C565        C  0.12311263  0.77119732  0.25916518    -0.10000
C566        C  0.08772956  0.76940133  0.26256883     0.04700
C567        C  0.05989386  0.74154952  0.28770153    -0.09400
H568        H  0.09554321  0.68243374  0.29600999     0.10300
H569        H  0.14891130  0.79740091  0.24843235     0.07800
H570        H  0.03391596  0.74169885  0.29421327     0.07700
O571        O  0.04431539  0.93141861  0.49130169    -0.79300
O572        O  0.24689284  0.93719425  0.39364279    -0.64000
O573        O  0.32031764  0.94303280  0.47193641    -1.10600
C574        C  0.20416166  0.86722779  0.54296654     1.07600
O575        O  0.22070711  0.95635203  0.43817138    -0.77200
O576        O  0.24087639  0.96295048  0.51896007    -0.64800
Ni577      Ni  0.03148203  0.95186423  0.44584975     1.34900
C578        C  0.27207989  0.97257966  0.54025044     0.86300
O579        O  0.32544725  0.97329129  0.39725151    -0.77700
O580        O  0.02691610  0.97579348  0.39875394    -0.88000
C581        C  0.22546823  0.95008874  0.40202457     0.85900
O582        O  0.32644467  0.88853159  0.41902750    -0.66200
O583        O  0.18926098  0.88209581  0.52151085    -0.85500
C584        C  0.29440048  0.87717645  0.39837597     0.86700
C585        C  0.01022524  0.99406673  0.39016574     1.08300
H586        H  0.22866234  0.87918937  0.45401411     0.40100
O587        O  0.24443502  0.90642088  0.46602734    -1.08200
O588        O  0.28997318  0.95500633  0.53647054    -0.64800
Ni589      Ni  0.28011151  0.90860238  0.50609299     1.26300
O590        O  0.27482665  0.89299902  0.40252827    -0.65000
O591        O  0.23873357  0.87420606  0.53943049    -0.77300
C592        C  0.03056434  0.92084093  0.52539697     0.86100
O593        O  0.31735588  0.91104538  0.54384348    -0.64500
Ni594      Ni  0.20721979  0.91924814  0.47998828     1.27400
Ni595      Ni  0.28446675  0.94006098  0.43144976     1.26100
H596        H  0.33542914  0.97024593  0.48398719     0.40600
O597        O  0.30271100  0.84972802  0.00127621    -0.79300
O598        O  0.28592392  0.96937421  0.89651064    -0.64000
O599        O  0.31256045  0.91953519  0.97346494    -1.10600
C600        C  0.21408815  0.91198670  0.04654641     1.07600
O601        O  0.28886370  0.67129312  0.93093194    -0.77200
O602        O  0.30901999  0.66920792  0.00749834    -0.64800
Ni603      Ni  0.31861330  0.87790083  0.95330700     1.34900
C604        C  0.31526339  0.98772487  0.03523410     0.86300
O605        O  0.34601346  0.96103104  0.90615073    -0.77700
O606        O  0.33856877  0.90169489  0.90378493    -0.88000
C607        C  0.29290125  0.65970263  0.89679568     0.85900
O608        O  0.26547110  0.84656245  0.92895430    -0.66200
O609        O  0.23007913  0.94720684  0.03457093    -0.85500
C610        C  0.25245101  0.85920279  0.90242050     0.86700
C611        C  0.35307268  0.93639433  0.89104920     1.08300
H612        H  0.22959772  0.90855154  0.94852120     0.40100
O613        O  0.25407297  0.92833714  0.96396259    -1.08200
O614        O  0.29914776  0.95021792  0.03863498    -0.64800
Ni615      Ni  0.26639647  0.90269320  0.00263138     1.26300
O616        O  0.26719626  0.89652889  0.89929638    -0.65000
O617        O  0.21997889  0.88668559  0.03071067    -0.77300
C618        C  0.29188649  0.85483131  0.03460328     0.86100
O619        O  0.27931000  0.87717468  0.04028522    -0.64500
Ni620      Ni  0.24974951  0.97084469  0.98482123     1.27400
Ni621      Ni  0.29978568  0.94470955  0.93448337     1.26100
H622        H  0.33681742  0.93972112  0.98893644     0.40600
C623        C  0.27187480  0.70055141  0.62950053     0.04700
C624        C  0.23969428  0.69736746  0.64786895    -0.11400
C625        C  0.24633950  0.72765242  0.67567893     0.02200
C626        C  0.28492726  0.76247240  0.68108192    -0.10000
C627        C  0.31730913  0.75988402  0.67385044     0.04700
C628        C  0.31113899  0.73014726  0.64521859    -0.09400
H629        H  0.20962816  0.67126625  0.64058846     0.10300
H630        H  0.28993298  0.78971986  0.69485157     0.07800
H631        H  0.33618051  0.72925100  0.63663653     0.07700
C632        C  0.28419720  0.70033407  0.79965933     0.04700
C633        C  0.24930654  0.69762166  0.78644392    -0.11400
C634        C  0.25221625  0.72931571  0.76664468     0.02200
C635        C  0.29030469  0.76450723  0.76417415    -0.10000
C636        C  0.32363786  0.76204954  0.76577860     0.04700
C637        C  0.32116378  0.73109702  0.78663110    -0.09400
H638        H  0.22029430  0.67123533  0.79172893     0.10300
H639        H  0.29330960  0.79174869  0.75578913     0.07800
H640        H  0.01670886  0.73358637  0.79175340     0.07700
C641        C  0.17100268  0.69949861  0.68306464     0.47000
H642        H  0.16857047  0.69740722  0.64990584    -0.02000
C643        C  0.17594101  0.70379879  0.76079704     0.47100
H644        H  0.17800416  0.70554158  0.79394709    -0.02000
C645        C  0.21394944  0.72059836  0.70128378    -0.15700
C646        C  0.15489340  0.72280636  0.70122799    -0.15400
C647        C  0.15072548  0.99400331  0.69964183    -0.15800
C648        C  0.21676029  0.72254817  0.74273090    -0.15800
C649        C  0.15712641  0.72494368  0.74270285    -0.15300
C650        C  0.15226366  0.99615905  0.74106791    -0.15700
C651        C  0.06570046  0.80763389  0.67965734     0.47000
H652        H  0.06370829  0.80511312  0.64650647    -0.02000
C653        C  0.07044321  0.81331633  0.75740742     0.47100
H654        H  0.07227580  0.81563759  0.79056159    -0.02000
C655        C  0.08682078  0.85120396  0.69761581    -0.15700
C656        C  0.02477235  0.78510173  0.69726810    -0.15400
C657        C  0.08854683  0.79103429  0.69863053    -0.16200
C658        C  0.08897818  0.85414701  0.73914086    -0.15800
C659        C  0.02744358  0.78790829  0.73862217    -0.15300
C660        C  0.09139621  0.79434577  0.74009418    -0.15700
C661        C  0.06897022  0.91233935  0.62710966     0.04700
C662        C  0.09798845  0.95115755  0.64423822    -0.11400
C663        C  0.12655682  0.95615181  0.67317795     0.02200
C664        C  0.12885825  0.92306422  0.67897242    -0.10000
C665        C  0.09426764  0.88424250  0.67212219     0.04700
C666        C  0.06469475  0.87866447  0.64396653    -0.09400
H667        H  0.09752303  0.97678997  0.63588352     0.10300
H668        H  0.15564149  0.92741027  0.69259100     0.07800
H669        H  0.03873233  0.84875265  0.63528905     0.07700
C670        C  0.16821503  0.80285172  0.63351201     0.04700
C671        C  0.17383691  0.77449094  0.65037949    -0.11400
C672        C  0.14577261  0.74689517  0.67567795     0.02200
C673        C  0.11064791  0.74548622  0.67880406    -0.10000
C674        C  0.11175004  0.78054868  0.67387245     0.04700
C675        C  0.13937605  0.80829448  0.64872829    -0.09400
H676        H  0.19962177  0.77397156  0.64393725     0.10300
H677        H  0.08460016  0.71936839  0.68930570     0.07800
H678        H  0.13919907  0.83445846  0.64205066     0.07700
C679        C  0.17650818  0.81191309  0.81131820     0.04700
C680        C  0.17938233  0.78057508  0.79565644    -0.11400
C681        C  0.14949567  0.75102574  0.76819499     0.02200
C682        C  0.11484895  0.75062657  0.76180100    -0.10000
C683        C  0.11737337  0.78687730  0.76625116     0.04700
C684        C  0.14762598  0.81718155  0.79339840    -0.09400
H685        H  0.20541508  0.78017544  0.80354777     0.10300
H686        H  0.08759881  0.72363794  0.74968858     0.07800
H687        H  0.14877440  0.84443690  0.80043190     0.07700
C688        C  0.06796898  0.92059307  0.80112449     0.04700
C689        C  0.09778600  0.95830195  0.78792284    -0.11400
C690        C  0.12782985  0.96117657  0.76546320     0.02200
C691        C  0.13045951  0.92787547  0.76205778    -0.10000
C692        C  0.09573842  0.88952638  0.76365504     0.04700
C693        C  0.06514820  0.88593167  0.78543052    -0.09400
H694        H  0.09712666  0.98465572  0.79382595     0.10300
H695        H  0.15752512  0.93142232  0.75321477     0.07800
H696        H  0.03930132  0.85631214  0.79027162     0.07700
C697        C  0.22089736  0.82978011  0.87243338    -0.14800
C698        C  0.20544481  0.84089349  0.84355849    -0.30000
H699        H  0.21120390  0.79850341  0.87323512     0.14200
H700        H  0.21341076  0.87168136  0.84410555     0.14700
C701        C  0.04292208  0.94473218  0.85502830    -0.14800
C702        C  0.03924800  0.91515843  0.83069170    -0.30000
H703        H  0.06528890  0.97618849  0.85110171     0.14200
H704        H  0.01570873  0.88420379  0.83553721     0.14700
C705        C  0.28178154  0.67186009  0.82787232    -0.14800
C706        C  0.30101291  0.68608338  0.86414426    -0.30000
H707        H  0.25955189  0.63980154  0.82174344     0.14200
H708        H  0.31923468  0.71842069  0.87151279     0.14700
C709        C  0.19352810  0.82771540  0.60193893    -0.14800
C710        C  0.17973077  0.84126698  0.57406148    -0.30000
H711        H  0.22307771  0.83343745  0.60053522     0.14200
H712        H  0.14949667  0.83390391  0.57450238     0.14700
C713        C  0.28715837  0.00411238  0.57289234    -0.14800
C714        C  0.26234018  0.67100969  0.59593383    -0.30000
H715        H  0.31798200  0.02976735  0.57426235     0.14200
H716        H  0.23154791  0.64508104  0.59154721     0.14700
C717        C  0.05606100  0.92090641  0.55793179    -0.14800
C718        C  0.04191110  0.90707092  0.59349199    -0.30000
H719        H  0.08749298  0.93450465  0.55356415     0.14200
H720        H  0.01030964  0.89169308  0.59805428     0.14700
C721        C  0.04064971  0.68841075  0.33567821    -0.14800
C722        C  0.05526190  0.67675402  0.36467962    -0.30000
H723        H  0.01049187  0.68128165  0.33613105     0.14200
H724        H  0.08601331  0.68549128  0.36503240     0.14700
C725        C  0.20264887  0.94319848  0.33155166    -0.14800
C726        C  0.20525064  0.95735710  0.36924966    -0.30000
H727        H  0.21672087  0.92734777  0.32468300     0.14200
H728        H  0.18841810  0.97018612  0.37669026     0.14700
C729        C  0.28013386  0.84543437  0.36621395    -0.14800
C730        C  0.30607664  0.84742857  0.34103207    -0.30000
H731        H  0.24835957  0.82270313  0.36159260     0.14200
H732        H  0.33744451  0.87177292  0.34647895     0.14700
C733        C  0.18873671  0.90148502  0.08053176    -0.14800
C734        C  0.19417867  0.93117922  0.10601666    -0.30000
H735        H  0.16447805  0.87031433  0.08277995     0.14200
H736        H  0.21949338  0.96175814  0.10272700     0.14700
C737        C  0.28093989  0.83472010  0.10348756    -0.14800
C738        C  0.29438543  0.83366027  0.06797757    -0.30000
H739        H  0.26601759  0.85009413  0.10819489     0.14200
H740        H  0.30666748  0.81573972  0.06298665     0.14700
C741        C  0.02754569  0.67293283  0.09588039    -0.14800
C742        C  0.01492294  0.68458800  0.06495228    -0.30000
H743        H  0.01730236  0.64156030  0.09743906     0.14200
H744        H  0.02694550  0.71634507  0.06273834     0.14700
C745        C  0.38914819  0.03407154  0.12782313     0.04700
C746        C  0.38581756  0.06518259  0.14319694    -0.11400
C747        C  0.41558966  0.09510415  0.17044478     0.02200
C748        C  0.45055411  0.09612453  0.17701007    -0.10000
C749        C  0.44872529  0.06024030  0.17250818     0.04700
C750        C  0.41850187  0.02948079  0.14567916    -0.09400
H751        H  0.35958521  0.06518718  0.13511393     0.10300
H752        H  0.47745940  0.12324570  0.18953895     0.07800
H753        H  0.41783014  0.00247559  0.13873404     0.07700
C754        C  0.50161807  0.04075425  0.25884572     0.47000
H755        H  0.50330442  0.04275786  0.29199077    -0.02000
C756        C  0.49723786  0.03565825  0.18105130     0.47100
H757        H  0.49557023  0.03364687  0.14789709    -0.02000
C758        C  0.47792016  0.05656188  0.23994777    -0.15700
C759        C  0.54280879  0.06474613  0.24159540    -0.15400
C760        C  0.48144963  0.99732346  0.24028211    -0.15800
C761        C  0.47535639  0.05356418  0.19850257    -0.15800
C762        C  0.54022388  0.06176588  0.20011653    -0.15300
C763        C  0.47922597  0.99468687  0.19880878    -0.15700
C764        C  0.39346873  0.14647048  0.25513009     0.47000
H765        H  0.39538438  0.14812347  0.28828080    -0.02000
C766        C  0.38935121  0.14238920  0.17741583     0.47100
H767        H  0.38769535  0.14071009  0.14426689    -0.02000
C768        C  0.41682006  0.18784842  0.23774232    -0.15700
C769        C  0.40953853  0.12300483  0.23702952    -0.15400
C770        C  0.35070878  0.12604610  0.23645751    -0.15800
C771        C  0.41501380  0.18564274  0.19626391    -0.15800
C772        C  0.40761709  0.12099230  0.19568535    -0.15300
C773        C  0.34834548  0.12389466  0.19488804    -0.15700
C774        C  0.61213978  0.14257764  0.13522957     0.04700
C775        C  0.57626280  0.11451355  0.15168628    -0.11400
C776        C  0.57453393  0.08547644  0.17510144     0.02200
C777        C  0.60766235  0.08271677  0.17741409    -0.10000
C778        C  0.64551007  0.11724244  0.17261744     0.04700
C779        C  0.64753125  0.14610899  0.14853538    -0.09400
H780        H  0.54994169  0.11500761  0.14599360     0.10300
H781        H  0.60479439  0.05600281  0.18733152     0.07800
H782        H  0.34556874  0.17129703  0.13916509     0.07700
C783        C  0.49894691  0.26118600  0.13566693     0.04700
C784        C  0.50221571  0.29583030  0.15192533    -0.11400
C785        C  0.47193630  0.29230894  0.17407400     0.02200
C786        C  0.43697246  0.25405972  0.17536556    -0.10000
C787        C  0.43927840  0.22056464  0.17159979     0.04700
C788        C  0.46901716  0.22335643  0.14861763    -0.09400
H789        H  0.52827412  0.99236874  0.14727853     0.10300
H790        H  0.40997957  0.25066711  0.18421049     0.07800
H791        H  0.46952836  0.19696697  0.14226885     0.07700
C792        C  0.62739964  0.15016418  0.31188411     0.04700
C793        C  0.32593048  0.15067879  0.28999733    -0.11400
C794        C  0.31854048  0.12025967  0.26184225     0.02200
C795        C  0.61365743  0.08782382  0.26029630    -0.10000
C796        C  0.58123403  0.09046612  0.26736321     0.04700
C797        C  0.58781298  0.12064882  0.29603662    -0.09400
H798        H  0.35626608  0.17614609  0.29755648     0.10300
H799        H  0.60851623  0.06010405  0.24781022     0.07800
H800        H  0.56271931  0.12103751  0.30538178     0.07700
C801        C  0.49755616  0.26875459  0.31204988     0.04700
C802        C  0.50229409  0.30272005  0.29533927    -0.11400
C803        C  0.47368587  0.29749303  0.26607999     0.02200
C804        C  0.43921688  0.25881386  0.25846871    -0.10000
C805        C  0.44125198  0.22561896  0.26425962     0.04700
C806        C  0.46912920  0.23018291  0.29390657    -0.09400
H807        H  0.52805767  0.33253333  0.30472923     0.10300
H808        H  0.41263237  0.25472177  0.24468823     0.07800
H809        H  0.46947596  0.20444558  0.30209845     0.07700
C810        C  0.39456826  0.04067501  0.30141613     0.04700
C811        C  0.42481998  0.03669428  0.28773589    -0.11400
C812        C  0.45351087  0.06579509  0.26435476     0.02200
C813        C  0.45404875  0.10071364  0.25998364    -0.10000
C814        C  0.41831838  0.09848352  0.26211460     0.04700
C815        C  0.38900109  0.06914101  0.28505161    -0.09400
H816        H  0.42543379  0.01078409  0.29452266     0.10300
H817        H  0.48017788  0.12734423  0.25023030     0.07800
H818        H  0.36252646  0.06875106  0.29049661     0.07700
O819        O  0.34626534  0.22622659  0.50155045    -0.79300
O820        O  0.57046041  0.26911618  0.40508869    -0.64000
O821        O  0.65536467  0.28331883  0.47142614    -1.10600
C822        C  0.55946325  0.19119241  0.55098242     1.07600
O823        O  0.52391476  0.25153736  0.44843491    -0.77200
O824        O  0.57375124  0.28523245  0.51917742    -0.64800
Ni825      Ni  0.35963600  0.26231653  0.45902908     1.34900
C826        C  0.60377251  0.29499646  0.54279164     0.86300
O827        O  0.64770386  0.32153120  0.40865356    -0.77700
O828        O  0.37744787  0.29812370  0.41640236    -0.88000
C829        C  0.53675108  0.26091921  0.41383351     0.85900
O830        O  0.65850694  0.22871263  0.41973659    -0.66200
O831        O  0.54301628  0.20964530  0.54213496    -0.85500
C832        C  0.62868811  0.21981297  0.39627450     0.86700
C833        C  0.36295300  0.31316956  0.39468350     1.08300
H834        H  0.56673284  0.20646166  0.45239462     0.40100
O835        O  0.57884407  0.23162111  0.46829952    -1.08200
O836        O  0.62140493  0.27662924  0.54105078    -0.64800
Ni837      Ni  0.62133922  0.23908860  0.50227438     1.26300
O838        O  0.61211942  0.23912787  0.39829437    -0.65000
O839        O  0.58695989  0.19407986  0.53163904    -0.77300
C840        C  0.34108166  0.23271827  0.53736261     0.86100
O841        O  0.66389387  0.24692029  0.53516852    -0.64500
Ni842      Ni  0.53761415  0.23222976  0.49430072     1.27400
Ni843      Ni  0.61292080  0.27636234  0.43779130     1.26100
H844        H  0.66801830  0.30861647  0.48727644     0.40600
O845        O  0.63792992  0.18609469  0.00344375    -0.79300
O846        O  0.62133040  0.30463310  0.89635399    -0.64000
O847        O  0.64710996  0.25458983  0.97394800    -1.10600
C848        C  0.54896673  0.24910582  0.04674627     1.07600
O849        O  0.59826647  0.99892128  0.93599121    -0.77200
O850        O  0.63931435  0.00320469  0.00659620    -0.64800
Ni851      Ni  0.65041821  0.21124054  0.95355505     1.34900
C852        C  0.65092714  0.32454556  0.03567789     0.86300
O853        O  0.67984360  0.29353326  0.90544998    -0.77700
O854        O  0.66714493  0.23201791  0.90188848    -0.88000
C855        C  0.60880973  0.99363803  0.90254905     0.85900
O856        O  0.59570550  0.18107972  0.93335892    -0.66200
O857        O  0.56486406  0.28428528  0.03450515    -0.85500
C858        C  0.58325239  0.19356828  0.90605742     0.86700
C859        C  0.68411033  0.26715549  0.88941979     1.08300
H860        H  0.56487600  0.24525090  0.94970371     0.40100
O861        O  0.58964858  0.26500686  0.96472590    -1.08200
O862        O  0.63497866  0.28703577  0.03907799    -0.64800
Ni863      Ni  0.60148559  0.23914071  0.00359918     1.26300
O864        O  0.60010340  0.23091518  0.90082632    -0.65000
O865        O  0.55539135  0.22398513  0.03161836    -0.77300
C866        C  0.62690230  0.19132328  0.03662279     0.86100
O867        O  0.61373511  0.21324521  0.04170969    -0.64500
Ni868      Ni  0.58563995  0.30792572  0.98473916     1.27400
Ni869      Ni  0.63462433  0.27969135  0.93465476     1.26100
H870        H  0.67176873  0.27442631  0.98905654     0.40600
C871        C  0.60396682  0.03336988  0.63005232     0.04700
C872        C  0.57245474  0.03166783  0.64844745    -0.11400
C873        C  0.58023581  0.06271542  0.67592040     0.02200
C874        C  0.61936136  0.09686922  0.68052734    -0.10000
C875        C  0.65094471  0.09279704  0.67356762     0.04700
C876        C  0.64355431  0.06212988  0.64558077    -0.09400
H877        H  0.54203537  0.00615028  0.64138812     0.10300
H878        H  0.62538320  0.12488370  0.69329744     0.07800
H879        H  0.66804011  0.06019393  0.63723769     0.07700
C880        C  0.61833898  0.03853823  0.80305405     0.04700
C881        C  0.58372579  0.03694984  0.79091276    -0.11400
C882        C  0.58697689  0.06698787  0.76777799     0.02200
C883        C  0.62536006  0.10087387  0.76340365    -0.10000
C884        C  0.65756532  0.09661759  0.76515059     0.04700
C885        C  0.65445269  0.06610646  0.78695504    -0.09400
H886        H  0.55475391  0.01202742  0.79849237     0.10300
H887        H  0.62927129  0.12820816  0.75396735     0.07800
H888        H  0.34851207  0.06772708  0.79483039     0.07700
C889        C  0.50512933  0.03599341  0.68388585     0.47000
H890        H  0.50241115  0.03401803  0.65073478    -0.02000
C891        C  0.51074357  0.04052356  0.76159716     0.47100
H892        H  0.51298000  0.04227974  0.79474743    -0.02000
C893        C  0.54835872  0.05712720  0.70175507    -0.15700
C894        C  0.48908686  0.05930474  0.70257621    -0.15400
C895        C  0.48218425  0.32737507  0.70160175    -0.15800
C896        C  0.55142035  0.05947182  0.74332265    -0.15800
C897        C  0.49158070  0.06138506  0.74400374    -0.15300
C898        C  0.48557189  0.33070713  0.74289043    -0.15700
C899        C  0.39768439  0.14127635  0.68359179     0.47000
H900        H  0.39589770  0.13857532  0.65044390    -0.02000
C901        C  0.40218032  0.14754941  0.76134738     0.47100
H902        H  0.40381126  0.15004078  0.79449394    -0.02000
C903        C  0.41842924  0.18490379  0.70122464    -0.15700
C904        C  0.35687708  0.11841878  0.70085153    -0.15400
C905        C  0.42037474  0.12490928  0.70310983    -0.16200
C906        C  0.42091301  0.18830170  0.74274220    -0.15800
C907        C  0.35928098  0.12203112  0.74221204    -0.15300
C908        C  0.42301564  0.12825418  0.74444344    -0.15700
C909        C  0.39332892  0.24458480  0.63745875     0.04700
C910        C  0.42319534  0.28327823  0.65367660    -0.11400
C911        C  0.45544621  0.28897804  0.67714582     0.02200
C912        C  0.45864081  0.25616948  0.68099901    -0.10000
C913        C  0.42408850  0.21718191  0.67563679     0.04700
C914        C  0.39227580  0.21107197  0.65053468    -0.09400
H915        H  0.42143232  0.30873285  0.64789584     0.10300
H916        H  0.48616904  0.26084775  0.69292448     0.07800
H917        H  0.36626205  0.18096502  0.64273363     0.07700
C918        C  0.50550766  0.14538880  0.64363768     0.04700
C919        C  0.50989177  0.11470348  0.65611570    -0.11400
C920        C  0.48022496  0.08404978  0.67794541     0.02200
C921        C  0.44460151  0.08175735  0.68097958    -0.10000
C922        C  0.44563274  0.11713563  0.67914252     0.04700
C923        C  0.47532384  0.14830250  0.65855368    -0.09400
H924        H  0.53647963  0.11549313  0.65027989     0.10300
H925        H  0.41839013  0.05465608  0.68998815     0.07800
H926        H  0.47482227  0.17469414  0.65398560     0.07700
C927        C  0.50860509  0.14639971  0.81456276     0.04700
C928        C  0.51258098  0.11607357  0.79802107    -0.11400
C929        C  0.48320074  0.08669340  0.77000794     0.02200
C930        C  0.44790410  0.08526899  0.76411641    -0.10000
C931        C  0.44901786  0.12069113  0.77032339     0.04700
C932        C  0.47889126  0.15085858  0.79768324    -0.09400
H933        H  0.53907910  0.11642843  0.80573617     0.10300
H934        H  0.42125223  0.05837317  0.75085862     0.07800
H935        H  0.47927389  0.17755738  0.80551946     0.07700
C936        C  0.40172020  0.25669638  0.80358604     0.04700
C937        C  0.43195704  0.29408742  0.79039167    -0.11400
C938        C  0.46180130  0.29636370  0.76820229     0.02200
C939        C  0.46364853  0.26251009  0.76447574    -0.10000
C940        C  0.42871609  0.22435639  0.76698277     0.04700
C941        C  0.39857250  0.22160512  0.78881414    -0.09400
H942        H  0.43151441  0.32064165  0.79571360     0.10300
H943        H  0.49003219  0.26541208  0.75426397     0.07800
H944        H  0.37251128  0.19222554  0.79397619     0.07700
C945        C  0.55054917  0.16400017  0.87713319    -0.14800
C946        C  0.53758709  0.17558919  0.84641976    -0.30000
H947        H  0.53845060  0.13226718  0.87965741     0.14200
H948        H  0.54801338  0.20700821  0.84477299     0.14700
C949        C  0.37616305  0.28189218  0.85569939    -0.14800
C950        C  0.37245234  0.25200115  0.83187925    -0.30000
H951        H  0.39901423  0.31327915  0.85208899     0.14200
H952        H  0.34841136  0.22116354  0.83645187     0.14700
C953        C  0.61781720  0.01285875  0.83325398    -0.14800
C954        C  0.60451050  0.01354098  0.86892687    -0.30000
H955        H  0.63365794  0.99843912  0.82850749     0.14200
H956        H  0.59132386  0.03060081  0.87402526     0.14700
C957        C  0.53078646  0.17484272  0.61524528    -0.14800
C958        C  0.54626493  0.16613956  0.58529330    -0.30000
H959        H  0.53111409  0.20219022  0.61485525     0.14200
H960        H  0.54675927  0.13929350  0.58452071     0.14700
C961        C  0.61804760  0.32743221  0.57502390    -0.14800
C962        C  0.59341436  0.00380276  0.59613155    -0.30000
H963        H  0.64914242  0.34370490  0.58597545     0.14200
H964        H  0.56180131  0.98078558  0.58936287     0.14700
C965        C  0.36060833  0.22528967  0.57043003    -0.14800
C966        C  0.36353121  0.24033384  0.60769639    -0.30000
H967        H  0.37699520  0.21185101  0.56347369     0.14200
H968        H  0.35010643  0.25693494  0.61402158     0.14700
C969        C  0.36897700  0.01552087  0.33238007    -0.14800
C970        C  0.38444964  0.00644257  0.36290617    -0.30000
H971        H  0.33824663  0.00688955  0.33168990     0.14200
H972        H  0.41568440  0.01666561  0.36411313     0.14700
C973        C  0.52453138  0.27365971  0.34562027    -0.14800
C974        C  0.51090949  0.26091363  0.38164057    -0.30000
H975        H  0.55586006  0.28778831  0.34045747     0.14200
H976        H  0.47980517  0.24842170  0.38667979     0.14700
C977        C  0.61350990  0.18750661  0.36372573    -0.14800
C978        C  0.63805356  0.17920662  0.34695857    -0.30000
H979        H  0.58322906  0.17369584  0.35094229     0.14200
H980        H  0.66891002  0.19583525  0.35918241     0.14700
C981        C  0.52297599  0.23797641  0.08029408    -0.14800
C982        C  0.52776134  0.26694324  0.10624834    -0.30000
H983        H  0.49929029  0.20656837  0.08250907     0.14200
H984        H  0.55243307  0.29784796  0.10298438     0.14700
C985        C  0.61213066  0.16760639  0.10432784    -0.14800
C986        C  0.62994202  0.17080474  0.07049757    -0.30000
H987        H  0.59343795  0.17912033  0.10707550     0.14200
H988        H  0.64579756  0.15623141  0.06685211     0.14700
C989        C  0.36041305  0.00497709  0.09557311    -0.14800
C990        C  0.34678616  0.01668353  0.06549892    -0.30000
H991        H  0.35111459  0.97379760  0.09605342     0.14200
H992        H  0.35790540  0.04829775  0.06401309     0.14700
C993        C  0.39238415  0.37038224  0.12778846     0.04700
C994        C  0.38928120  0.40134458  0.14395920    -0.11400
C995        C  0.41908217  0.43069792  0.17158396     0.02200
C996        C  0.45393117  0.43146013  0.17750778    -0.10000
C997        C  0.45158608  0.39536875  0.17250569     0.04700
C998        C  0.42137549  0.36514152  0.14530338    -0.09400
H999        H  0.36310640  0.40155172  0.13624479     0.10300
H1000       H  0.48112174  0.45843608  0.18976030     0.07800
H1001       H  0.42033242  0.33799890  0.13793452     0.07700
C1002       C  0.50324105  0.37428134  0.25843784     0.47000
H1003       H  0.50546255  0.37687208  0.29158807    -0.02000
C1004       C  0.49805571  0.36860358  0.18070396     0.47100
H1005       H  0.49595220  0.36627339  0.14754164    -0.02000
C1006       C  0.48035957  0.39095375  0.23983529    -0.15700
C1007       C  0.54401910  0.39669751  0.24045678    -0.15400
C1008       C  0.48185222  0.33071424  0.24049360    -0.15800
C1009       C  0.47748078  0.38779234  0.19838368    -0.15800
C1010       C  0.54115893  0.39382821  0.19908809    -0.15300
C1011       C  0.47934781  0.32775563  0.19894096    -0.15700
C1012       C  0.39678765  0.48173137  0.25656113     0.47000
H1013       H  0.39946477  0.48427772  0.28972143    -0.02000
C1014       C  0.39131683  0.47626162  0.17888350     0.47100
H1015       H  0.38903495  0.47404741  0.14572397    -0.02000
C1016       C  0.41859750  0.52264278  0.23810264    -0.15700
C1017       C  0.41372001  0.45898905  0.23858931    -0.15400
C1018       C  0.35358748  0.45972757  0.23864312    -0.15800
C1019       C  0.41593700  0.51973215  0.19681556    -0.15800
C1020       C  0.41123420  0.45646468  0.19715121    -0.15300
C1021       C  0.35063103  0.45686236  0.19714149    -0.15700
C1022       C  0.61272208  0.47400156  0.13338935     0.04700
C1023       C  0.57695242  0.44611688  0.15012151    -0.11400
C1024       C  0.57531902  0.41729412  0.17382127     0.02200
C1025       C  0.60848229  0.41464351  0.17635048    -0.10000
C1026       C  0.64626590  0.44905850  0.17121162     0.04700
C1027       C  0.64816870  0.47754580  0.14656012    -0.09400
H1028       H  0.55065892  0.44667720  0.14452388     0.10300
H1029       H  0.60568296  0.38810190  0.18667169     0.07800
H1030       H  0.34723033  0.50480980  0.14322167     0.07700
C1031       C  0.49858396  0.59482721  0.13531592     0.04700
C1032       C  0.50162121  0.62960694  0.15085730    -0.11400
C1033       C  0.47167590  0.62634047  0.17342188     0.02200
C1034       C  0.43705540  0.58798873  0.17599840    -0.10000
C1035       C  0.43936518  0.55445594  0.17177805     0.04700
C1036       C  0.46894987  0.55721380  0.14871031    -0.09400
H1037       H  0.52821796  0.32541716  0.14726131     0.10300
H1038       H  0.41055478  0.58466991  0.18638990     0.07800
H1039       H  0.46965346  0.53088609  0.14277334     0.07700
C1040       C  0.62746278  0.48289072  0.30820302     0.04700
C1041       C  0.32870179  0.48591127  0.29034569    -0.11400
C1042       C  0.32151405  0.45436756  0.26394293     0.02200
C1043       C  0.61474841  0.41961408  0.25930029    -0.10000
C1044       C  0.58218770  0.42213872  0.26576229     0.04700
C1045       C  0.58826642  0.45276908  0.29292565    -0.09400
H1046       H  0.35894321  0.51181508  0.29726882     0.10300
H1047       H  0.60993290  0.39189047  0.24723558     0.07800
H1048       H  0.56304773  0.45361303  0.30087101     0.07700
C1049       C  0.50691681  0.60538375  0.30253503     0.04700
C1050       C  0.50783628  0.63878024  0.28958291    -0.11400
C1051       C  0.47590677  0.63260813  0.26476988     0.02200
C1052       C  0.44140275  0.59355406  0.25935676    -0.10000
C1053       C  0.44480747  0.56084244  0.26300403     0.04700
C1054       C  0.47710508  0.56663987  0.28646670    -0.09400
H1055       H  0.53383981  0.66890068  0.29736158     0.10300
H1056       H  0.41378643  0.58877583  0.24758207     0.07800
H1057       H  0.47903907  0.54128489  0.29223432     0.07700
C1058       C  0.40006587  0.37811836  0.30482179     0.04700
C1059       C  0.42899008  0.37284482  0.28948090    -0.11400
C1060       C  0.45689994  0.40103730  0.26479282     0.02200
C1061       C  0.45811569  0.43627419  0.26051286    -0.10000
C1062       C  0.42306722  0.43500064  0.26399384     0.04700
C1063       C  0.39477515  0.40693680  0.28871693    -0.09400
H1064       H  0.42903175  0.34651534  0.29571249     0.10300
H1065       H  0.48418686  0.46249972  0.25018277     0.07800
H1066       H  0.36896371  0.40738498  0.29523659     0.07700
O1067       O  0.34610982  0.56165225  0.50159145    -0.79300
O1068       O  0.57923214  0.60292507  0.39433058    -0.64000
O1069       O  0.65131201  0.60685685  0.47240109    -1.10600
C1070       C  0.53474902  0.53376440  0.54393077     1.07600
O1071       O  0.55252278  0.62163434  0.43851142    -0.77200
O1072       O  0.57107040  0.62735572  0.51846537    -0.64800
Ni1073     Ni  0.35971780  0.59744790  0.45864817     1.34900
C1074       C  0.60297114  0.63825822  0.53904570     0.86300
O1075       O  0.65763187  0.63878617  0.39859372    -0.77700
O1076       O  0.37732726  0.63284871  0.41565180    -0.88000
C1077       C  0.55779060  0.61573931  0.40258658     0.85900
O1078       O  0.65409252  0.54936222  0.42108296    -0.66200
O1079       O  0.51925513  0.54693441  0.52092732    -0.85500
C1080       C  0.62357840  0.54028457  0.39905995     0.86700
C1081       C  0.36176213  0.64612949  0.39279591     1.08300
H1082       H  0.55998186  0.54393049  0.45441987     0.40100
O1083       O  0.57551020  0.57119651  0.46634902    -1.08200
O1084       O  0.62161972  0.62143212  0.53549690    -0.64800
Ni1085     Ni  0.61095732  0.57380758  0.50703254     1.26300
O1086       O  0.60591439  0.55820338  0.40201838    -0.65000
O1087       O  0.56961556  0.54123531  0.54121736    -0.77300
C1088       C  0.34142725  0.56888230  0.53740556     0.86100
O1089       O  0.64809821  0.57637754  0.54516945    -0.64500
Ni1090     Ni  0.53797262  0.58396430  0.47953469     1.27400
Ni1091     Ni  0.61604928  0.60495324  0.43210290     1.26100
H1092       H  0.66734134  0.63415496  0.48419730     0.40600
O1093       O  0.63604597  0.51735289  0.00148345    -0.79300
O1094       O  0.61903392  0.63647292  0.89612887    -0.64000
O1095       O  0.64647971  0.58721200  0.97310494    -1.10600
C1096       C  0.54869096  0.58119386  0.04744143     1.07600
O1097       O  0.60249145  0.33586784  0.93642632    -0.77200
O1098       O  0.63885977  0.33774176  0.00883010    -0.64800
Ni1099     Ni  0.65065826  0.54435352  0.95268633     1.34900
C1100       C  0.64969983  0.65703672  0.03613472     0.86300
O1101       O  0.67869237  0.62695899  0.90442191    -0.77700
O1102       O  0.66946588  0.56683892  0.90219138    -0.88000
C1103       C  0.61090756  0.32879263  0.90242268     0.85900
O1104       O  0.59672756  0.51359892  0.93009324    -0.66200
O1105       O  0.56344846  0.61585978  0.03438532    -0.85500
C1106       C  0.58384979  0.52632166  0.90349879     0.86700
C1107       C  0.68499560  0.60166602  0.88932737     1.08300
H1108       H  0.56371298  0.57679385  0.94991913     0.40100
O1109       O  0.58848788  0.59684853  0.96474276    -1.08200
O1110       O  0.63470722  0.61962018  0.03884570    -0.64800
Ni1111     Ni  0.60129182  0.57157425  0.00357815     1.26300
O1112       O  0.59947473  0.56367962  0.89973603    -0.65000
O1113       O  0.55563607  0.55629144  0.03267681    -0.77300
C1114       C  0.62654870  0.52333409  0.03527201     0.86100
O1115       O  0.61477242  0.54634893  0.04134535    -0.64500
Ni1116     Ni  0.58410391  0.63960516  0.98482489     1.27400
Ni1117     Ni  0.63333592  0.61210497  0.93407642     1.26100
H1118       H  0.67118645  0.60731943  0.98798963     0.40600
C1119       C  0.60319561  0.36384944  0.62721946     0.04700
C1120       C  0.57163968  0.36252945  0.64564515    -0.11400
C1121       C  0.57945676  0.39369284  0.67333045     0.02200
C1122       C  0.61848283  0.42791183  0.67745987    -0.10000
C1123       C  0.65027583  0.42426097  0.67041514     0.04700
C1124       C  0.64292400  0.39321218  0.64264269    -0.09400
H1125       H  0.54118378  0.33706057  0.63869272     0.10300
H1126       H  0.62435219  0.45596184  0.68991879     0.07800
H1127       H  0.66769586  0.39195815  0.63393448     0.07700
C1128       C  0.61962981  0.37259313  0.80177206     0.04700
C1129       C  0.58470081  0.37042708  0.78940027    -0.11400
C1130       C  0.58745752  0.39990853  0.76557906     0.02200
C1131       C  0.62560930  0.43374629  0.76058563    -0.10000
C1132       C  0.65793382  0.42975012  0.76228145     0.04700
C1133       C  0.65548726  0.39997832  0.78499153    -0.09400
H1134       H  0.55589445  0.34557844  0.79742466     0.10300
H1135       H  0.62920676  0.46078599  0.75062375     0.07800
H1136       H  0.34467158  0.39909614  0.79441246     0.07700
C1137       C  0.50447415  0.36804981  0.68271286     0.47000
H1138       H  0.50112879  0.36517027  0.64957236    -0.02000
C1139       C  0.51137407  0.37432168  0.76044081     0.47100
H1140       H  0.51423164  0.37683639  0.79359240    -0.02000
C1141       C  0.54794089  0.38891810  0.69972303    -0.15700
C1142       C  0.48856328  0.39177948  0.70115970    -0.15400
C1143       C  0.48308068  0.66118881  0.70074468    -0.15800
C1144       C  0.55166176  0.39226073  0.74138563    -0.15800
C1145       C  0.49177109  0.39473793  0.74253997    -0.15300
C1146       C  0.48647633  0.66413180  0.74195431    -0.15700
C1147       C  0.39586674  0.47442489  0.68233705     0.47000
H1148       H  0.39407513  0.47235939  0.64918420    -0.02000
C1149       C  0.40003173  0.47941536  0.76012311     0.47100
H1150       H  0.40160285  0.48141114  0.79326183    -0.02000
C1151       C  0.41614458  0.51783002  0.70067595    -0.15700
C1152       C  0.35477963  0.45105368  0.69957095    -0.15400
C1153       C  0.41920530  0.45812766  0.70104279    -0.16200
C1154       C  0.41829462  0.52061275  0.74225142    -0.15800
C1155       C  0.35692334  0.45368367  0.74094858    -0.15300
C1156       C  0.42173097  0.46094345  0.74253212    -0.15700
C1157       C  0.39222444  0.57927857  0.63796078     0.04700
C1158       C  0.42310906  0.61784238  0.65354342    -0.11400
C1159       C  0.45547059  0.62284590  0.67620483     0.02200
C1160       C  0.45745556  0.58922097  0.67991724    -0.10000
C1161       C  0.42209852  0.55061384  0.67550046     0.04700
C1162       C  0.39019278  0.54530729  0.65120759    -0.09400
H1163       H  0.42209305  0.64373832  0.64777971     0.10300
H1164       H  0.48488371  0.59316217  0.69100613     0.07800
H1165       H  0.36358667  0.51547311  0.64384636     0.07700
C1166       C  0.50021076  0.47235979  0.63600286     0.04700
C1167       C  0.50620674  0.44392861  0.65176789    -0.11400
C1168       C  0.47818085  0.41531131  0.67613594     0.02200
C1169       C  0.44276053  0.41349084  0.68000447    -0.10000
C1170       C  0.44325448  0.44851722  0.67608941     0.04700
C1171       C  0.47087814  0.47696759  0.65138119    -0.09400
H1172       H  0.53228500  0.44403404  0.64505470     0.10300
H1173       H  0.41688667  0.38690231  0.69011742     0.07800
H1174       H  0.47024565  0.50293803  0.64498324     0.07700
C1175       C  0.50841430  0.47989907  0.81231214     0.04700
C1176       C  0.51251253  0.44968274  0.79580102    -0.11400
C1177       C  0.48306999  0.42003975  0.76818905     0.02200
C1178       C  0.44753542  0.41836148  0.76256680    -0.10000
C1179       C  0.44847008  0.45381447  0.76818140     0.04700
C1180       C  0.47856143  0.48423351  0.79532287    -0.09400
H1181       H  0.53912013  0.45019002  0.80336919     0.10300
H1182       H  0.42063118  0.39098899  0.75052019     0.07800
H1183       H  0.47883755  0.51087500  0.80310801     0.07700
C1184       C  0.40421588  0.59288294  0.80441370     0.04700
C1185       C  0.43383479  0.62890002  0.78937657    -0.11400
C1186       C  0.46240531  0.62965206  0.76675713     0.02200
C1187       C  0.46296039  0.59496469  0.76307230    -0.10000
C1188       C  0.42772864  0.55729881  0.76716442     0.04700
C1189       C  0.39926838  0.55636476  0.79085325    -0.09400
H1190       H  0.43454898  0.65611266  0.79516480     0.10300
H1191       H  0.48860146  0.59675263  0.75223068     0.07800
H1192       H  0.37304228  0.52779655  0.79766426     0.07700
C1193       C  0.55166116  0.49706811  0.87394395    -0.14800
C1194       C  0.53718604  0.50871377  0.84460587    -0.30000
H1195       H  0.54097834  0.46553302  0.87508501     0.14200
H1196       H  0.54611670  0.53979909  0.84455279     0.14700
C1197       C  0.37403970  0.57647088  0.86783932    -0.14800
C1198       C  0.37875365  0.59419182  0.83370456    -0.30000
H1199       H  0.38765990  0.55977236  0.87249791     0.14200
H1200       H  0.36646140  0.61201384  0.82866645     0.14700
C1201       C  0.61943422  0.34737271  0.83253410    -0.14800
C1202       C  0.60803691  0.34981709  0.86887194    -0.30000
H1203       H  0.63321559  0.33097886  0.82706818     0.14200
H1204       H  0.59701065  0.36878618  0.87441436     0.14700
C1205       C  0.52536550  0.49752409  0.60473179    -0.14800
C1206       C  0.51072397  0.50921654  0.57586375    -0.30000
H1207       H  0.55528324  0.50409222  0.60378062     0.14200
H1208       H  0.48018285  0.50106647  0.57591612     0.14700
C1209       C  0.61779753  0.67044187  0.57064531    -0.14800
C1210       C  0.59246402  0.33349155  0.59324532    -0.30000
H1211       H  0.64921245  0.69472870  0.57327734     0.14200
H1212       H  0.56111940  0.31461300  0.58263575     0.14700
C1213       C  0.36042271  0.56104500  0.57065051    -0.14800
C1214       C  0.36290348  0.57568693  0.60801380    -0.30000
H1215       H  0.37658297  0.54732711  0.56384747     0.14200
H1216       H  0.34968059  0.59248551  0.61432330     0.14700
C1217       C  0.37431476  0.35280743  0.33585201    -0.14800
C1218       C  0.38763435  0.33872462  0.36355306    -0.30000
H1219       H  0.34493172  0.34750448  0.33725542     0.14200
H1220       H  0.41772401  0.34567867  0.36320205     0.14700
C1221       C  0.53676881  0.60999569  0.33224997    -0.14800
C1222       C  0.53797351  0.62310917  0.36990191    -0.30000
H1223       H  0.55186120  0.59520908  0.32523553     0.14200
H1224       H  0.52010207  0.63479543  0.37722950     0.14700
C1225       C  0.60974701  0.50935794  0.36628523    -0.14800
C1226       C  0.63656724  0.51224091  0.34178744    -0.30000
H1227       H  0.57805431  0.48656951  0.36097090     0.14200
H1228       H  0.66775068  0.53681467  0.34807281     0.14700
C1229       C  0.52323751  0.57057485  0.08140625    -0.14800
C1230       C  0.52737928  0.60010946  0.10610210    -0.30000
H1231       H  0.50026336  0.53914372  0.08466284     0.14200
H1232       H  0.55146778  0.63101639  0.10185215     0.14700
C1233       C  0.61258252  0.49927394  0.10284259    -0.14800
C1234       C  0.62974664  0.50236830  0.06861821    -0.30000
H1235       H  0.59424906  0.51113288  0.10624060     0.14200
H1236       H  0.64516578  0.48742808  0.06426995     0.14700
C1237       C  0.36350808  0.34184002  0.09539229    -0.14800
C1238       C  0.34936651  0.35388364  0.06614394    -0.30000
H1239       H  0.35432441  0.31066263  0.09520170     0.14200
H1240       H  0.36029328  0.38549842  0.06521777     0.14700
C1241       C  0.39084252  0.70046473  0.12727003     0.04700
C1242       C  0.38649445  0.73104327  0.14232275    -0.11400
C1243       C  0.41601216  0.76167897  0.16925660     0.02200
C1244       C  0.45165467  0.76387720  0.17560282    -0.10000
C1245       C  0.45089393  0.72853570  0.17109587     0.04700
C1246       C  0.42107510  0.69724466  0.14464961    -0.09400
H1247       H  0.35975006  0.73009847  0.13416520     0.10300
H1248       H  0.47823719  0.79139529  0.18800174     0.07800
H1249       H  0.42123202  0.67069553  0.13776276     0.07700
C1250       C  0.50258366  0.70857859  0.25764392     0.47000
H1251       H  0.50436627  0.71095098  0.29079436    -0.02000
C1252       C  0.49836601  0.70310256  0.17993217     0.47100
H1253       H  0.49672061  0.70091012  0.14677728    -0.02000
C1254       C  0.47966377  0.72500817  0.23859058    -0.15700
C1255       C  0.54363709  0.73134922  0.24023735    -0.15400
C1256       C  0.48161726  0.66507996  0.23957605    -0.15800
C1257       C  0.47749165  0.72216852  0.19719504    -0.15800
C1258       C  0.54127258  0.72844961  0.19888974    -0.15300
C1259       C  0.47941585  0.66212946  0.19807644    -0.15700
C1260       C  0.39395294  0.81337523  0.25396135     0.47000
H1261       H  0.39664947  0.81577851  0.28712148    -0.02000
C1262       C  0.38848119  0.80810620  0.17619584     0.47100
H1263       H  0.38625004  0.80593877  0.14304354    -0.02000
C1264       C  0.41704470  0.85434099  0.23573092    -0.15700
C1265       C  0.40966268  0.78959384  0.23584573    -0.15400
C1266       C  0.35086105  0.79263525  0.23611192    -0.15800
C1267       C  0.41440634  0.85168983  0.19442276    -0.15800
C1268       C  0.40725740  0.78707834  0.19444357    -0.15300
C1269       C  0.34774882  0.78973800  0.19454837    -0.15700
C1270       C  0.61338262  0.80898173  0.13389189     0.04700
C1271       C  0.57763673  0.78137523  0.15076089    -0.11400
C1272       C  0.57575278  0.75226118  0.17414429     0.02200
C1273       C  0.60886626  0.74951609  0.17679511    -0.10000
C1274       C  0.64670470  0.78387819  0.17167407     0.04700
C1275       C  0.64875293  0.81234401  0.14691329    -0.09400
H1276       H  0.55145090  0.78213321  0.14521134     0.10300
H1277       H  0.60602514  0.72301422  0.18731682     0.07800
H1278       H  0.34385564  0.83577335  0.13820960     0.07700
C1279       C  0.49911327  0.92813104  0.13532333     0.04700
C1280       C  0.50219816  0.96272661  0.15164356    -0.11400
C1281       C  0.47182528  0.95916114  0.17370981     0.02200
C1282       C  0.43682355  0.92074922  0.17506786    -0.10000
C1283       C  0.43861296  0.88691156  0.16997432     0.04700
C1284       C  0.46878319  0.89011684  0.14752330    -0.09400
H1285       H  0.52740011  0.65913909  0.14560888     0.10300
H1286       H  0.41026864  0.91740658  0.18534741     0.07800
H1287       H  0.46931421  0.86375284  0.14111787     0.07700
C1288       C  0.62693280  0.81890579  0.30698308     0.04700
C1289       C  0.32698728  0.81920152  0.28877101    -0.11400
C1290       C  0.31916013  0.78764620  0.26193013     0.02200
C1291       C  0.61429569  0.75460208  0.25981552    -0.10000
C1292       C  0.58162157  0.75708195  0.26586873     0.04700
C1293       C  0.58767053  0.78823139  0.29234275    -0.09400
H1294       H  0.35737591  0.84497290  0.29528705     0.10300
H1295       H  0.60953780  0.72681234  0.24802265     0.07800
H1296       H  0.56252573  0.78933300  0.30010249     0.07700
C1297       C  0.50587749  0.93575116  0.30138356     0.04700
C1298       C  0.50719653  0.96965654  0.28927323    -0.11400
C1299       C  0.47547780  0.96427186  0.26475999     0.02200
C1300       C  0.44090420  0.92531399  0.25841582    -0.10000
C1301       C  0.44401286  0.89230197  0.26093110     0.04700
C1302       C  0.47613715  0.89738562  0.28419449    -0.09400
H1303       H  0.53321711  0.99961324  0.29767452     0.10300
H1304       H  0.41346882  0.92099812  0.24671852     0.07800
H1305       H  0.47772043  0.87170921  0.28930699     0.07700
C1306       C  0.39642286  0.70834882  0.30105968     0.04700
C1307       C  0.42630014  0.70429739  0.28632959    -0.11400
C1308       C  0.45468981  0.73355489  0.26277557     0.02200
C1309       C  0.45493769  0.76828176  0.25858740    -0.10000
C1310       C  0.41917344  0.76578208  0.26123121     0.04700
C1311       C  0.39055665  0.73680914  0.28503904    -0.09400
H1312       H  0.42695366  0.67829081  0.29247553     0.10300
H1313       H  0.48084282  0.79498265  0.24864934     0.07800
H1314       H  0.36423341  0.73648302  0.29111070     0.07700
O1315       O  0.34507993  0.89377734  0.49948088    -0.79300
O1316       O  0.58063208  0.93766614  0.39428344    -0.64000
O1317       O  0.65228170  0.94198743  0.47311575    -1.10600
C1318       C  0.53579589  0.86818255  0.54389521     1.07600
O1319       O  0.55294857  0.95611160  0.43767064    -0.77200
O1320       O  0.57438033  0.96426459  0.51767315    -0.64800
Ni1321     Ni  0.35875465  0.93164685  0.45864398     1.34900
C1322       C  0.60461822  0.97276430  0.53993363     0.86300
O1323       O  0.65912020  0.97357971  0.39861215    -0.77700
O1324       O  0.37676681  0.96916804  0.41777809    -0.88000
C1325       C  0.55851961  0.94981041  0.40192219     0.85900
O1326       O  0.65753028  0.88717556  0.41949872    -0.66200
O1327       O  0.52171881  0.88396543  0.52273259    -0.85500
C1328       C  0.62558432  0.87630518  0.39903605     0.86700
C1329       C  0.36065352  0.98166676  0.39471373     1.08300
H1330       H  0.56045434  0.87927699  0.45429298     0.40100
O1331       O  0.57647618  0.90641817  0.46648624    -1.08200
O1332       O  0.62143972  0.95397426  0.53740853    -0.64800
Ni1333     Ni  0.61140389  0.90759971  0.50676625     1.26300
O1334       O  0.60666242  0.89274266  0.40327039    -0.65000
O1335       O  0.56956260  0.87346893  0.53965463    -0.77300
C1336       C  0.33968906  0.89931288  0.53551655     0.86100
O1337       O  0.64785982  0.90868462  0.54459828    -0.64500
Ni1338     Ni  0.53964765  0.91992462  0.48016351     1.27400
Ni1339     Ni  0.61729609  0.94004595  0.43241018     1.26100
H1340       H  0.66771542  0.96908658  0.48546203     0.40600
O1341       O  0.63395357  0.84856735  0.00031409    -0.79300
O1342       O  0.62250677  0.97221405  0.89697902    -0.64000
O1343       O  0.64673698  0.91967397  0.97284635    -1.10600
C1344       C  0.55044382  0.91544491  0.04774200     1.07600
O1345       O  0.60075337  0.66781538  0.93669256    -0.77200
O1346       O  0.63727295  0.67004194  0.00938979    -0.64800
Ni1347     Ni  0.65016304  0.87653502  0.95202459     1.34900
C1348       C  0.65158472  0.99049959  0.03383911     0.86300
O1349       O  0.68085753  0.96069309  0.90537942    -0.77700
O1350       O  0.67028985  0.89993778  0.90207865    -0.88000
C1351       C  0.60849667  0.66048024  0.90245953     0.85900
O1352       O  0.59670017  0.84729885  0.92850376    -0.66200
O1353       O  0.56747454  0.95089614  0.03617218    -0.85500
C1354       C  0.58500852  0.86094840  0.90175455     0.86700
C1355       C  0.68642478  0.93504646  0.88966067     1.08300
H1356       H  0.56481293  0.91059402  0.94891960     0.40100
O1357       O  0.58940406  0.93034543  0.96418950    -1.08200
O1358       O  0.63559704  0.95299257  0.03780678    -0.64800
Ni1359     Ni  0.60146743  0.90458534  0.00285908     1.26300
O1360       O  0.60129918  0.89852188  0.89865378    -0.65000
O1361       O  0.55562856  0.88977305  0.03157462    -0.77300
C1362       C  0.62495631  0.85500540  0.03424253     0.86100
O1363       O  0.61418128  0.87882934  0.04051875    -0.64500
Ni1364     Ni  0.58507724  0.97282808  0.98519040     1.27400
Ni1365     Ni  0.63504499  0.94600121  0.93433420     1.26100
H1366       H  0.67143128  0.93917219  0.98810540     0.40600
C1367       C  0.60315501  0.69831908  0.62966985     0.04700
C1368       C  0.57182656  0.69747057  0.64743073    -0.11400
C1369       C  0.57994139  0.72905986  0.67433811     0.02200
C1370       C  0.61921579  0.76290282  0.67886267    -0.10000
C1371       C  0.65043399  0.75815707  0.67235351     0.04700
C1372       C  0.64277445  0.72700820  0.64493690    -0.09400
H1373       H  0.54133488  0.67206375  0.64050472     0.10300
H1374       H  0.62558617  0.79112364  0.69146548     0.07800
H1375       H  0.66694968  0.72433347  0.63701107     0.07700
C1376       C  0.61763346  0.70478217  0.80228170     0.04700
C1377       C  0.58325162  0.70346592  0.78969976    -0.11400
C1378       C  0.58691508  0.73354718  0.76621575     0.02200
C1379       C  0.62538000  0.76715133  0.76193220    -0.10000
C1380       C  0.65729070  0.76253903  0.76402432     0.04700
C1381       C  0.65390007  0.73205034  0.78616888    -0.09400
H1382       H  0.55417001  0.67876163  0.79727966     0.10300
H1383       H  0.62960328  0.79452947  0.75220306     0.07800
H1384       H  0.34736324  0.73032533  0.79187571     0.07700
C1385       C  0.50494783  0.70227134  0.68253161     0.47000
H1386       H  0.50196938  0.69988530  0.64938172    -0.02000
C1387       C  0.51110382  0.70763866  0.76017478     0.47100
H1388       H  0.51354774  0.70982221  0.79333513    -0.02000
C1389       C  0.54834758  0.72407792  0.70019395    -0.15700
C1390       C  0.48829139  0.72511943  0.70097747    -0.15400
C1391       C  0.48248990  0.99465391  0.70166820    -0.15800
C1392       C  0.55163175  0.72671899  0.74180059    -0.15800
C1393       C  0.49115815  0.72771810  0.74233491    -0.15300
C1394       C  0.48540107  0.99716661  0.74295877    -0.15700
C1395       C  0.39621619  0.80768614  0.68149265     0.47000
H1396       H  0.39399087  0.80519721  0.64833893    -0.02000
C1397       C  0.40135901  0.81323419  0.75926989     0.47100
H1398       H  0.40346102  0.81562338  0.79242519    -0.02000
C1399       C  0.41707960  0.85124171  0.69927198    -0.15700
C1400       C  0.35542330  0.78469123  0.69945948    -0.15400
C1401       C  0.41959378  0.79147528  0.70016195    -0.16200
C1402       C  0.41969082  0.85417502  0.74078580    -0.15800
C1403       C  0.35810638  0.78715444  0.74089930    -0.15300
C1404       C  0.42255676  0.79461198  0.74162003    -0.15700
C1405       C  0.39414872  0.91274643  0.63527435     0.04700
C1406       C  0.42383946  0.95119240  0.65248922    -0.11400
C1407       C  0.45572284  0.95643721  0.67639032     0.02200
C1408       C  0.45841535  0.92319862  0.67984693    -0.10000
C1409       C  0.42365497  0.88424449  0.67388259     0.04700
C1410       C  0.39253664  0.87882141  0.64810664    -0.09400
H1411       H  0.42224993  0.97681593  0.64710200     0.10300
H1412       H  0.48576106  0.92747518  0.69173588     0.07800
H1413       H  0.36650597  0.84888202  0.63969183     0.07700
C1414       C  0.50047252  0.80578649  0.63541334     0.04700
C1415       C  0.50648132  0.77745851  0.65150182    -0.11400
C1416       C  0.47840208  0.74895861  0.67601340     0.02200
C1417       C  0.44304794  0.74709201  0.67979247    -0.10000
C1418       C  0.44344285  0.78188846  0.67527580     0.04700
C1419       C  0.47098852  0.81026397  0.65049178    -0.09400
H1420       H  0.53259363  0.77757395  0.64495120     0.10300
H1421       H  0.41734683  0.72075582  0.69047716     0.07800
H1422       H  0.47025566  0.83614568  0.64392728     0.07700
C1423       C  0.51041281  0.81525531  0.80995075     0.04700
C1424       C  0.51385595  0.78439892  0.79402050    -0.11400
C1425       C  0.48340513  0.75378578  0.76782498     0.02200
C1426       C  0.44795796  0.75223351  0.76268275    -0.10000
C1427       C  0.44950983  0.78804307  0.76725728     0.04700
C1428       C  0.48027557  0.81923459  0.79328175    -0.09400
H1429       H  0.54057396  0.78496476  0.80109415     0.10300
H1430       H  0.42081038  0.72480437  0.75108057     0.07800
H1431       H  0.48080475  0.84612522  0.80047142     0.07700
C1432       C  0.40118009  0.92226517  0.80254526     0.04700
C1433       C  0.43152742  0.95978997  0.78979595    -0.11400
C1434       C  0.46128922  0.96222415  0.76744955     0.02200
C1435       C  0.46287820  0.92823578  0.76309818    -0.10000
C1436       C  0.42780139  0.89009145  0.76534000     0.04700
C1437       C  0.39769735  0.88723335  0.78721506    -0.09400
H1438       H  0.43123012  0.98637029  0.79565899     0.10300
H1439       H  0.48925556  0.93110917  0.75292416     0.07800
H1440       H  0.37152055  0.85783887  0.79213819     0.07700
C1441       C  0.55345941  0.83236277  0.87142975    -0.14800
C1442       C  0.53943503  0.84429979  0.84198865    -0.30000
H1443       H  0.54258008  0.80076089  0.87236455     0.14200
H1444       H  0.54836504  0.87539717  0.84209503     0.14700
C1445       C  0.37809167  0.94712298  0.85694000    -0.14800
C1446       C  0.37232091  0.91757003  0.83115378    -0.30000
H1447       H  0.40230669  0.97832620  0.85475658     0.14200
H1448       H  0.34709886  0.88693518  0.83446073     0.14700
C1449       C  0.61656004  0.67889806  0.83267774    -0.14800
C1450       C  0.60506487  0.68121774  0.86898625    -0.30000
H1451       H  0.63036854  0.66253073  0.82721683     0.14200
H1452       H  0.59405223  0.70018230  0.87465155     0.14700
C1453       C  0.52586787  0.83119418  0.60433571    -0.14800
C1454       C  0.51139171  0.84299178  0.57535574    -0.30000
H1455       H  0.55600485  0.83826410  0.60388247     0.14200
H1456       H  0.48076831  0.83462873  0.57508743     0.14700
C1457       C  0.61955082  0.00434718  0.57229994    -0.14800
C1458       C  0.59256151  0.66746753  0.59723719    -0.30000
H1459       H  0.65151258  0.02531603  0.57830832     0.14200
H1460       H  0.56158011  0.64183837  0.59353728     0.14700
C1461       C  0.36023864  0.89266272  0.56830075    -0.14800
C1462       C  0.36460240  0.90902651  0.60534617    -0.30000
H1463       H  0.37597190  0.87855718  0.56121931     0.14200
H1464       H  0.35193944  0.92639011  0.61149177     0.14700
C1465       C  0.37108508  0.68293440  0.33220718    -0.14800
C1466       C  0.38548854  0.67047791  0.36060354    -0.30000
H1467       H  0.34139525  0.67688409  0.33355779     0.14200
H1468       H  0.41585193  0.67819155  0.36025039     0.14700
C1469       C  0.53486876  0.93947581  0.33180161    -0.14800
C1470       C  0.53851501  0.95612091  0.36850170    -0.30000
H1471       H  0.54759235  0.92205177  0.32635971     0.14200
H1472       H  0.52263902  0.97025507  0.37475654     0.14700
C1473       C  0.61115983  0.84477392  0.36675492    -0.14800
C1474       C  0.63620373  0.84963974  0.33904718    -0.30000
H1475       H  0.58037425  0.81901860  0.36503227     0.14200
H1476       H  0.66649828  0.87656378  0.34204847     0.14700
C1477       C  0.52453962  0.90471715  0.08138238    -0.14800
C1478       C  0.52843370  0.93393580  0.10642361    -0.30000
H1479       H  0.50122175  0.87327891  0.08400622     0.14200
H1480       H  0.55270610  0.96492176  0.10278329     0.14700
C1481       C  0.61317613  0.83370217  0.10286249    -0.14800
C1482       C  0.62771135  0.83385344  0.06764127    -0.30000
H1483       H  0.59685705  0.84769406  0.10705235     0.14200
H1484       H  0.64114822  0.81699139  0.06289081     0.14700
C1485       C  0.36261497  0.67076609  0.09537210    -0.14800
C1486       C  0.35096609  0.68271269  0.06411691    -0.30000
H1487       H  0.35220954  0.63936146  0.09705889     0.14200
H1488       H  0.36334501  0.71457550  0.06199752     0.14700
C1489       C  0.72452506  0.03842474  0.12723514     0.04700
C1490       C  0.72057045  0.06912870  0.14296525    -0.11400
C1491       C  0.74975584  0.09870710  0.17114683     0.02200
C1492       C  0.78491990  0.10001979  0.17751687    -0.10000
C1493       C  0.78346932  0.06433866  0.17268534     0.04700
C1494       C  0.75382402  0.03392981  0.14529379    -0.09400
H1495       H  0.69430808  0.06894615  0.13452788     0.10300
H1496       H  0.81184013  0.12730968  0.18967731     0.07800
H1497       H  0.75349781  0.00715187  0.13810090     0.07700
C1498       C  0.83692311  0.04515990  0.25873173     0.47000
H1499       H  0.83906684  0.04751632  0.29188016    -0.02000
C1500       C  0.83178788  0.03945203  0.18091773     0.47100
H1501       H  0.82983534  0.03718015  0.14776074    -0.02000
C1502       C  0.81266025  0.06040655  0.24015667    -0.15700
C1503       C  0.87782317  0.06934285  0.24097355    -0.15400
C1504       C  0.81690833  0.00163915  0.24047110    -0.15800
C1505       C  0.80988668  0.05734792  0.19863764    -0.15800
C1506       C  0.87484635  0.06600785  0.19949551    -0.15300
C1507       C  0.81436721  0.99860829  0.19895985    -0.15700
C1508       C  0.72792071  0.15042269  0.25664212     0.47000
H1509       H  0.73047643  0.15261263  0.28978722    -0.02000
C1510       C  0.72246869  0.14531943  0.17894006     0.47100
H1511       H  0.72015619  0.14322575  0.14578806    -0.02000
C1512       C  0.75051577  0.19170126  0.23858559    -0.15700
C1513       C  0.74410183  0.12690873  0.23840746    -0.15400
C1514       C  0.68468888  0.12916191  0.23888068    -0.15800
C1515       C  0.74818465  0.18901031  0.19712243    -0.15800
C1516       C  0.74146785  0.12436784  0.19688928    -0.15300
C1517       C  0.68167408  0.12647614  0.19730645    -0.15700
C1518       C  0.94717506  0.14268479  0.13101398     0.04700
C1519       C  0.91127767  0.11635726  0.14854724    -0.11400
C1520       C  0.90901558  0.08829880  0.17396682     0.02200
C1521       C  0.94133595  0.08442670  0.17711787    -0.10000
C1522       C  0.97946916  0.11778060  0.17129935     0.04700
C1523       C  0.98222180  0.14583621  0.14517400    -0.09400
H1524       H  0.88553423  0.11775552  0.14250324     0.10300
H1525       H  0.93767176  0.05776730  0.18821916     0.07800
H1526       H  0.67619067  0.17160420  0.14101739     0.07700
C1527       C  0.83403353  0.26413842  0.13771481     0.04700
C1528       C  0.83688900  0.29897698  0.15221223    -0.11400
C1529       C  0.80623688  0.29606722  0.17292948     0.02200
C1530       C  0.77103975  0.25777160  0.17472735    -0.10000
C1531       C  0.77305217  0.22389010  0.17214147     0.04700
C1532       C  0.80354051  0.22648695  0.15059827    -0.09400
H1533       H  0.86191097  0.99474718  0.14578118     0.10300
H1534       H  0.74412171  0.25478705  0.18323837     0.07800
H1535       H  0.80423840  0.20006675  0.14534330     0.07700
C1536       C  0.96423268  0.15594709  0.30862642     0.04700
C1537       C  0.65933065  0.15282706  0.29315107    -0.11400
C1538       C  0.65235884  0.12260099  0.26490435     0.02200
C1539       C  0.94777637  0.09036594  0.26029963    -0.10000
C1540       C  0.91641908  0.09493614  0.26636924     0.04700
C1541       C  0.92431757  0.12688627  0.29328097    -0.09400
H1542       H  0.68954096  0.17863981  0.30047380     0.10300
H1543       H  0.94148261  0.06186211  0.24872189     0.07800
H1544       H  0.89997971  0.12923755  0.30121271     0.07700
C1545       C  0.83313856  0.27363613  0.31057595     0.04700
C1546       C  0.83851964  0.30742439  0.29279297    -0.11400
C1547       C  0.80938619  0.30224700  0.26426069     0.02200
C1548       C  0.77433941  0.26367936  0.25761374    -0.10000
C1549       C  0.77548338  0.23004585  0.26438311     0.04700
C1550       C  0.80351032  0.23480118  0.29387578    -0.09400
H1551       H  0.86487368  0.33714967  0.30123467     0.10300
H1552       H  0.74783178  0.25984164  0.24393603     0.07800
H1553       H  0.80316359  0.20892941  0.30298261     0.07700
C1554       C  0.73214211  0.04687838  0.30578661     0.04700
C1555       C  0.76164363  0.04225624  0.29072961    -0.11400
C1556       C  0.78889125  0.07016553  0.26525225     0.02200
C1557       C  0.78926811  0.10491372  0.26043659    -0.10000
C1558       C  0.75389916  0.10308277  0.26386329     0.04700
C1559       C  0.72605791  0.07502527  0.28901078    -0.09400
H1560       H  0.76246433  0.01649620  0.29761289     0.10300
H1561       H  0.81511622  0.13127957  0.25000291     0.07800
H1562       H  0.69996066  0.07499495  0.29538424     0.07700
O1563       O  0.70827239  0.26040576  0.49033910    -0.79300
O1564       O  0.90466695  0.27050252  0.40283545    -0.64000
O1565       O  0.98910472  0.28540995  0.47057652    -1.10600
C1566       C  0.89286319  0.19097913  0.54781752     1.07600
O1567       O  0.85758930  0.25203622  0.44570617    -0.77200
O1568       O  0.90688738  0.28522902  0.51648356    -0.64800
Ni1569     Ni  0.69569721  0.28137474  0.44504546     1.34900
C1570       C  0.93670601  0.29492265  0.54034281     0.86300
O1571       O  0.98152283  0.32426716  0.40840593    -0.77700
O1572       O  0.69127214  0.30543370  0.39772029    -0.88000
C1573       C  0.87084697  0.26211605  0.41135378     0.85900
O1574       O  0.99535241  0.23318729  0.41863244    -0.66200
O1575       O  0.87624979  0.20933449  0.53913569    -0.85500
C1576       C  0.96527927  0.22349238  0.39515555     0.86700
C1577       C  0.67530807  0.32450309  0.38930277     1.08300
H1578       H  0.90106401  0.20762587  0.44939926     0.40100
O1579       O  0.91276143  0.23250392  0.46574278    -1.08200
O1580       O  0.95405432  0.27632947  0.53926723    -0.64800
Ni1581     Ni  0.95507382  0.24002877  0.50011017     1.26300
O1582       O  0.94784055  0.24197966  0.39684897    -0.65000
O1583       O  0.92054383  0.19424466  0.52846332    -0.77300
C1584       C  0.69634967  0.25251507  0.52544273     0.86100
O1585       O  0.99743276  0.24799202  0.53351405    -0.64500
Ni1586     Ni  0.87102199  0.23232394  0.49143099     1.27400
Ni1587     Ni  0.94686750  0.27811624  0.43632733     1.26100
H1588       H  0.00086930  0.31029009  0.48689726     0.40600
O1589       O  0.94481434  0.16988100  0.99239245    -0.79300
O1590       O  0.96000269  0.31293927  0.90015133    -0.64000
O1591       O  0.97297810  0.24828888  0.97004145    -1.10600
C1592       C  0.88336788  0.25176136  0.04906026     1.07600
O1593       O  0.93017909  0.99798870  0.93339515    -0.77200
O1594       O  0.96858932  0.00232095  0.00603967    -0.64800
Ni1595     Ni  0.96625667  0.20072419  0.94546085     1.34900
C1596       C  0.98504810  0.32306744  0.03416678     0.86300
O1597       O  0.01089530  0.29095564  0.90562584    -0.77700
O1598       O  0.99078835  0.22656909  0.89705880    -0.88000
C1599       C  0.93877118  0.99073358  0.89956427     0.85900
O1600       O  0.91366092  0.18118391  0.92195431    -0.66200
O1601       O  0.90139952  0.28758875  0.03818066    -0.85500
C1602       C  0.90671720  0.20086183  0.89786186     0.86700
C1603       C  0.01209077  0.26315274  0.88766414     1.08300
H1604       H  0.89634659  0.24871222  0.94921110     0.40100
O1605       O  0.92130211  0.26699641  0.96466857    -1.08200
O1606       O  0.96785988  0.28516057  0.03664777    -0.64800
Ni1607     Ni  0.93058303  0.23774214  0.00164098     1.26300
O1608       O  0.93039161  0.23844158  0.89604520    -0.65000
O1609       O  0.88657136  0.22540919  0.03157937    -0.77300
C1610       C  0.94363387  0.17998844  0.02852653     0.86100
O1611       O  0.94172444  0.20968087  0.03771506    -0.64500
Ni1612     Ni  0.91940803  0.31037497  0.98736421     1.27400
Ni1613     Ni  0.96670188  0.28065182  0.93482625     1.26100
H1614       H  0.99869021  0.26429960  0.98526614     0.40600
C1615       C  0.93765965  0.02984058  0.62324428     0.04700
C1616       C  0.90574808  0.02799424  0.64105271    -0.11400
C1617       C  0.91289880  0.05849954  0.66896008     0.02200
C1618       C  0.95196618  0.09268646  0.67431815    -0.10000
C1619       C  0.98394508  0.08906521  0.66799120     0.04700
C1620       C  0.97717480  0.05874682  0.63954333    -0.09400
H1621       H  0.87542874  0.00252502  0.63339412     0.10300
H1622       H  0.95759372  0.12054608  0.68704302     0.07800
H1623       H  0.00210782  0.05775935  0.63082739     0.07700
C1624       C  0.94997875  0.03505359  0.79876769     0.04700
C1625       C  0.91525069  0.03264029  0.78511031    -0.11400
C1626       C  0.91854437  0.06222697  0.76109591     0.02200
C1627       C  0.95676519  0.09634857  0.75726812    -0.10000
C1628       C  0.98919456  0.09260592  0.75995762     0.04700
C1629       C  0.98630109  0.06268677  0.78279458    -0.09400
H1630       H  0.88623478  0.00757569  0.79238859     0.10300
H1631       H  0.96051114  0.12353483  0.74759804     0.07800
H1632       H  0.68003314  0.06421350  0.79188427     0.07700
C1633       C  0.83716508  0.03114791  0.67660059     0.47000
H1634       H  0.83441600  0.02884767  0.64345264    -0.02000
C1635       C  0.84258022  0.03576357  0.75423741     0.47100
H1636       H  0.84473769  0.03707907  0.78734077    -0.02000
C1637       C  0.88049081  0.05242579  0.69454683    -0.15700
C1638       C  0.82073293  0.05441997  0.69500632    -0.15400
C1639       C  0.81433267  0.32444179  0.69790628    -0.15800
C1640       C  0.88325245  0.05467719  0.73613370    -0.15800
C1641       C  0.82278337  0.05584693  0.73640694    -0.15300
C1642       C  0.81643085  0.32722464  0.73933570    -0.15700
C1643       C  0.73021847  0.13821215  0.68149289     0.47000
H1644       H  0.72821055  0.13556729  0.64834420    -0.02000
C1645       C  0.73505482  0.14395548  0.75917939     0.47100
H1646       H  0.73668331  0.14621853  0.79230722    -0.02000
C1647       C  0.75215068  0.18187815  0.69925090    -0.15700
C1648       C  0.68930888  0.11675160  0.69907602    -0.15400
C1649       C  0.75230121  0.12072173  0.70032998    -0.16200
C1650       C  0.75471032  0.18509544  0.74084237    -0.15800
C1651       C  0.69202127  0.11972143  0.74038594    -0.15300
C1652       C  0.75468638  0.12340122  0.74187146    -0.15700
C1653       C  0.73419601  0.24128360  0.62587351     0.04700
C1654       C  0.76292233  0.28043129  0.64227351    -0.11400
C1655       C  0.79096559  0.28617347  0.67217757     0.02200
C1656       C  0.79351969  0.25349645  0.67945174    -0.10000
C1657       C  0.75910614  0.21452749  0.67329509     0.04700
C1658       C  0.72966715  0.20817197  0.64435980    -0.09400
H1659       H  0.76243819  0.30573750  0.63275001     0.10300
H1660       H  0.82048232  0.25840236  0.69322290     0.07800
H1661       H  0.70373660  0.17812834  0.63615426     0.07700
C1662       C  0.83871844  0.14343902  0.64028301     0.04700
C1663       C  0.84240073  0.11169294  0.65057483    -0.11400
C1664       C  0.81208962  0.07985648  0.67079730     0.02200
C1665       C  0.77651643  0.07791120  0.67385089    -0.10000
C1666       C  0.77843152  0.11404195  0.67571592     0.04700
C1667       C  0.80899196  0.14634306  0.65676188    -0.09400
H1668       H  0.86886621  0.11242970  0.64424655     0.10300
H1669       H  0.74951144  0.04995707  0.67997677     0.07800
H1670       H  0.80917627  0.17334738  0.65411721     0.07700
C1671       C  0.82839441  0.12510515  0.81953120     0.04700
C1672       C  0.83606956  0.10039355  0.79716323    -0.11400
C1673       C  0.81159574  0.07791202  0.76327792     0.02200
C1674       C  0.77704365  0.07740874  0.75617234    -0.10000
C1675       C  0.77727143  0.11136640  0.76786600     0.04700
C1676       C  0.80170154  0.13420943  0.80262695    -0.09400
H1677       H  0.86144301  0.09927049  0.80623917     0.10300
H1678       H  0.75116559  0.05211252  0.74012740     0.07800
H1679       H  0.80007732  0.15815123  0.81611013     0.07700
C1680       C  0.73339557  0.25200822  0.80141114     0.04700
C1681       C  0.76235126  0.28945498  0.78695773    -0.11400
C1682       C  0.79252056  0.29249187  0.76455963     0.02200
C1683       C  0.79590107  0.25953329  0.76232465    -0.10000
C1684       C  0.76168635  0.22088806  0.76504626     0.04700
C1685       C  0.73127740  0.21736035  0.78705343    -0.09400
H1686       H  0.76092639  0.31546340  0.79192058     0.10300
H1687       H  0.82314663  0.26337809  0.75368988     0.07800
H1688       H  0.70594045  0.18778258  0.79289957     0.07700
C1689       C  0.87207264  0.18116899  0.86847996    -0.14800
C1690       C  0.85137181  0.14195188  0.85841525    -0.30000
H1691       H  0.86771820  0.20046888  0.85020753     0.14200
H1692       H  0.85799822  0.12318749  0.87485254     0.14700
C1693       C  0.70883126  0.27672557  0.85491120    -0.14800
C1694       C  0.70462692  0.24683555  0.83072347    -0.30000
H1695       H  0.73172307  0.30801946  0.85096926     0.14200
H1696       H  0.68091184  0.21597445  0.83567382     0.14700
C1697       C  0.94912998  0.00985321  0.82995028    -0.14800
C1698       C  0.93519990  0.01069787  0.86533199    -0.30000
H1699       H  0.96492239  0.99527803  0.82599686     0.14200
H1700       H  0.92226196  0.02807294  0.86976745     0.14700
C1701       C  0.86372596  0.17345726  0.61203548    -0.14800
C1702       C  0.87971665  0.16557710  0.58191388    -0.30000
H1703       H  0.86349918  0.20050251  0.61196443     0.14200
H1704       H  0.88088906  0.13913353  0.58086556     0.14700
C1705       C  0.95100898  0.32746350  0.57213936    -0.14800
C1706       C  0.92715194  0.00051790  0.58869538    -0.30000
H1707       H  0.98241560  0.34479064  0.58209346     0.14200
H1708       H  0.89656189  0.98432652  0.57575383     0.14700
C1709       C  0.72181544  0.25130749  0.55702084    -0.14800
C1710       C  0.70727214  0.23538628  0.59183237    -0.30000
H1711       H  0.75341624  0.26585846  0.55282862     0.14200
H1712       H  0.67545197  0.21868359  0.59575154     0.14700
C1713       C  0.70608322  0.02110319  0.33670832    -0.14800
C1714       C  0.71949185  0.00802310  0.36555137    -0.30000
H1715       H  0.67611801  0.01450551  0.33695574     0.14200
H1716       H  0.75005826  0.01619182  0.36618865     0.14700
C1717       C  0.85992353  0.27869147  0.34446916    -0.14800
C1718       C  0.84531791  0.26258544  0.37921416    -0.30000
H1719       H  0.89180865  0.29583461  0.34081175     0.14200
H1720       H  0.81362836  0.24766996  0.38314427     0.14700
C1721       C  0.95039721  0.19073374  0.36332176    -0.14800
C1722       C  0.97583605  0.18720710  0.34182909    -0.30000
H1723       H  0.91851347  0.17172242  0.35565430     0.14200
H1724       H  0.00762290  0.20838806  0.34965693     0.14700
C1725       C  0.85823203  0.24082187  0.08322284    -0.14800
C1726       C  0.86378174  0.26962728  0.10974206    -0.30000
H1727       H  0.83372403  0.20962756  0.08485258     0.14200
H1728       H  0.88909539  0.30036318  0.10707209     0.14700
C1729       C  0.94801565  0.16792405  0.09973674    -0.14800
C1730       C  0.94408586  0.15604406  0.06082018    -0.30000
H1731       H  0.95012074  0.19538274  0.10881638     0.14200
H1732       H  0.94186632  0.12833558  0.05259561     0.14700
C1733       C  0.69624002  0.00901445  0.09485793    -0.14800
C1734       C  0.68296273  0.02011891  0.06397470    -0.30000
H1735       H  0.68704414  0.97790556  0.09592583     0.14200
H1736       H  0.69390146  0.05163619  0.06196259     0.14700
C1737       C  0.72638051  0.37186182  0.12696452     0.04700
C1738       C  0.72177170  0.40175218  0.14344638    -0.11400
C1739       C  0.75130625  0.43195711  0.17065136     0.02200
C1740       C  0.78713979  0.43440644  0.17638796    -0.10000
C1741       C  0.78688016  0.39943879  0.17057110     0.04700
C1742       C  0.75697595  0.36856446  0.14361605    -0.09400
H1743       H  0.69478526  0.40063404  0.13615995     0.10300
H1744       H  0.81356138  0.46174044  0.18934738     0.07800
H1745       H  0.75730508  0.34227307  0.13583363     0.07700
C1746       C  0.83945844  0.37930650  0.25641247     0.47000
H1747       H  0.84164721  0.38201551  0.28955872    -0.02000
C1748       C  0.83417979  0.37323566  0.17872875     0.47100
H1749       H  0.83218698  0.37079749  0.14557376    -0.02000
C1750       C  0.81712442  0.39656856  0.23752384    -0.15700
C1751       C  0.88027109  0.40101714  0.23861746    -0.15400
C1752       C  0.81737743  0.33550119  0.23869716    -0.15800
C1753       C  0.81412792  0.39319449  0.19611731    -0.15800
C1754       C  0.87742073  0.39792426  0.19729834    -0.15300
C1755       C  0.81444826  0.33221693  0.19721047    -0.15700
C1756       C  0.72851981  0.48240124  0.25583312     0.47000
H1757       H  0.73106577  0.48460465  0.28898748    -0.02000
C1758       C  0.72322293  0.47764280  0.17806389     0.47100
H1759       H  0.72110489  0.47566504  0.14490978    -0.02000
C1760       C  0.75115732  0.52367443  0.23772224    -0.15700
C1761       C  0.74463941  0.45892305  0.23763403    -0.15400
C1762       C  0.68538777  0.46113618  0.23771137    -0.15800
C1763       C  0.74835668  0.52112480  0.19642147    -0.15800
C1764       C  0.74248398  0.45701104  0.19621431    -0.15300
C1765       C  0.68242795  0.45853127  0.19613579    -0.15700
C1766       C  0.95103519  0.47957156  0.13443881     0.04700
C1767       C  0.91510456  0.45221849  0.15106341    -0.11400
C1768       C  0.91194526  0.42142333  0.17246389     0.02200
C1769       C  0.94421911  0.41717623  0.17378889    -0.10000
C1770       C  0.98261928  0.45100914  0.16896301     0.04700
C1771       C  0.98565523  0.48090093  0.14581863    -0.09400
H1772       H  0.88961615  0.45433378  0.14662474     0.10300
H1773       H  0.94042203  0.38991583  0.18333018     0.07800
H1774       H  0.67677055  0.50291636  0.13875299     0.07700
C1775       C  0.83118650  0.59697480  0.13531664     0.04700
C1776       C  0.83485973  0.63182852  0.15193542    -0.11400
C1777       C  0.80525662  0.62860300  0.17517127     0.02200
C1778       C  0.77035169  0.59029502  0.17732920    -0.10000
C1779       C  0.77192885  0.55636576  0.17181688     0.04700
C1780       C  0.80118228  0.55919702  0.14817109    -0.09400
H1781       H  0.86311320  0.32840049  0.14747884     0.10300
H1782       H  0.74412374  0.58714984  0.18830143     0.07800
H1783       H  0.80132198  0.53266714  0.14142043     0.07700
C1784       C  0.96538540  0.48569260  0.30710800     0.04700
C1785       C  0.65974150  0.48588763  0.29008817    -0.11400
C1786       C  0.65316687  0.45482227  0.26334167     0.02200
C1787       C  0.95065368  0.42230921  0.25672330    -0.10000
C1788       C  0.91872859  0.42571147  0.26393021     0.04700
C1789       C  0.92581936  0.45634883  0.29185394    -0.09400
H1790       H  0.68976146  0.51223807  0.29688691     0.10300
H1791       H  0.94499379  0.39440882  0.24408060     0.07800
H1792       H  0.90113544  0.45790223  0.30032354     0.07700
C1793       C  0.84147985  0.60566420  0.30132059     0.04700
C1794       C  0.84221811  0.63947362  0.28999054    -0.11400
C1795       C  0.80996210  0.63398998  0.26641098     0.02200
C1796       C  0.77527308  0.59493305  0.26061498    -0.10000
C1797       C  0.77841475  0.56184019  0.26273456     0.04700
C1798       C  0.81132460  0.56722144  0.28467610    -0.09400
H1799       H  0.86832285  0.66947295  0.29805105     0.10300
H1800       H  0.74761454  0.59056894  0.24962570     0.07800
H1801       H  0.81323832  0.54165183  0.28917443     0.07700
C1802       C  0.73100771  0.37370681  0.29749591     0.04700
C1803       C  0.76207188  0.37209956  0.28273900    -0.11400
C1804       C  0.79109774  0.40347895  0.26172090     0.02200
C1805       C  0.79054491  0.43802133  0.25946034    -0.10000
C1806       C  0.75426317  0.43456182  0.26246095     0.04700
C1807       C  0.72517679  0.40342539  0.28452682    -0.09400
H1808       H  0.76365716  0.34639462  0.28764450     0.10300
H1809       H  0.81621333  0.46547410  0.25027483     0.07800
H1810       H  0.69802865  0.40157646  0.29024682     0.07700
O1811       O  0.67391209  0.55653084  0.50097965    -0.79300
O1812       O  0.91731230  0.60630513  0.39266603    -0.64000
O1813       O  0.98875125  0.61063104  0.47199082    -1.10600
C1814       C  0.87213398  0.53652928  0.54246257     1.07600
O1815       O  0.88971684  0.62468815  0.43619773    -0.77200
O1816       O  0.91131053  0.63302841  0.51551328    -0.64800
Ni1817     Ni  0.68808572  0.59334537  0.45896394     1.34900
C1818       C  0.94125903  0.64121110  0.53797874     0.86300
O1819       O  0.99566590  0.64263831  0.39808330    -0.77700
O1820       O  0.70622510  0.62964756  0.41656297    -0.88000
C1821       C  0.89553590  0.61885088  0.40045012     0.85900
O1822       O  0.99533907  0.55647983  0.41889359    -0.66200
O1823       O  0.85846683  0.55280546  0.52146543    -0.85500
C1824       C  0.96366153  0.54555339  0.39781944     0.86700
C1825       C  0.69181052  0.64484089  0.39485264     1.08300
H1826       H  0.89688048  0.54746483  0.45229039     0.40100
O1827       O  0.91283349  0.57451240  0.46473382    -1.08200
O1828       O  0.95746655  0.62184321  0.53600868    -0.64800
Ni1829     Ni  0.94764460  0.57572361  0.50520583     1.26300
O1830       O  0.94443097  0.56178724  0.40167852    -0.65000
O1831       O  0.90558255  0.54117180  0.53785943    -0.77300
C1832       C  0.66947517  0.56340693  0.53696580     0.86100
O1833       O  0.98396302  0.57724140  0.54328338    -0.64500
Ni1834     Ni  0.87630478  0.58843532  0.47856333     1.27400
Ni1835     Ni  0.95384473  0.60857194  0.43112044     1.26100
H1836       H  0.00381904  0.63766451  0.48447639     0.40600
O1837       O  0.96750314  0.51621971  0.00037253    -0.79300
O1838       O  0.95172643  0.63631624  0.89598526    -0.64000
O1839       O  0.97701638  0.58501083  0.97193692    -1.10600
C1840       C  0.88148231  0.58233195  0.04759872     1.07600
O1841       O  0.93307105  0.33731435  0.93832193    -0.77200
O1842       O  0.97355905  0.33777282  0.00833301    -0.64800
Ni1843     Ni  0.97997835  0.54166744  0.95074148     1.34900
C1844       C  0.98311678  0.65568352  0.03491744     0.86300
O1845       O  0.00942956  0.62424953  0.90344177    -0.77700
O1846       O  0.99673102  0.56277543  0.89920886    -0.88000
C1847       C  0.94568727  0.33381656  0.90540529     0.85900
O1848       O  0.92537909  0.51176031  0.93030698    -0.66200
O1849       O  0.89756514  0.61729952  0.03489170    -0.85500
C1850       C  0.91318485  0.52462863  0.90314917     0.86700
C1851       C  0.01358020  0.59795858  0.88695606     1.08300
H1852       H  0.89525055  0.57718915  0.94962391     0.40100
O1853       O  0.92029378  0.59667408  0.96436633    -1.08200
O1854       O  0.96680843  0.61810366  0.03809933    -0.64800
Ni1855     Ni  0.93221136  0.57041098  0.00276142     1.26300
O1856       O  0.92946113  0.56214371  0.89916216    -0.65000
O1857       O  0.88708087  0.55653459  0.03238244    -0.77300
C1858       C  0.95797829  0.52227499  0.03412157     0.86100
O1859       O  0.94494358  0.54424692  0.03996690    -0.64500
Ni1860     Ni  0.91782212  0.64046949  0.98497737     1.27400
Ni1861     Ni  0.96465537  0.61066390  0.93340480     1.26100
H1862       H  0.00194539  0.60466803  0.98672569     0.40600
C1863       C  0.93580351  0.36251319  0.62500871     0.04700
C1864       C  0.90421802  0.36014041  0.64427157    -0.11400
C1865       C  0.91161485  0.39149463  0.67131655     0.02200
C1866       C  0.95010486  0.42655508  0.67426814    -0.10000
C1867       C  0.98237762  0.42379813  0.66700925     0.04700
C1868       C  0.97551898  0.39292098  0.63938569    -0.09400
H1869       H  0.87402683  0.33389154  0.63819473     0.10300
H1870       H  0.95539024  0.45454425  0.68612895     0.07800
H1871       H  0.00060027  0.39241305  0.63028565     0.07700
C1872       C  0.95257100  0.37449564  0.80298190     0.04700
C1873       C  0.91706320  0.37104612  0.79020960    -0.11400
C1874       C  0.91884528  0.39852880  0.76403633     0.02200
C1875       C  0.95649906  0.43205373  0.75738106    -0.10000
C1876       C  0.98894689  0.42840257  0.75931817     0.04700
C1877       C  0.98759864  0.40048730  0.78421689    -0.09400
H1878       H  0.88864508  0.34664141  0.79951177     0.10300
H1879       H  0.95951213  0.45851999  0.74656239     0.07800
H1880       H  0.68130923  0.39850619  0.79002764     0.07700
C1881       C  0.83684855  0.36550878  0.67967510     0.47000
H1882       H  0.83437513  0.36324887  0.64651996    -0.02000
C1883       C  0.84221209  0.37077561  0.75742155     0.47100
H1884       H  0.84446840  0.37295048  0.79057480    -0.02000
C1885       C  0.87986927  0.38620685  0.69744254    -0.15700
C1886       C  0.82097560  0.38933453  0.69784795    -0.15400
C1887       C  0.81763811  0.66000463  0.69988937    -0.15800
C1888       C  0.88282759  0.38901651  0.73909152    -0.15800
C1889       C  0.82364635  0.39196656  0.73931700    -0.15300
C1890       C  0.82024335  0.66259881  0.74122964    -0.15700
C1891       C  0.72986764  0.47292029  0.67786060     0.47000
H1892       H  0.72773226  0.47062099  0.64471141    -0.02000
C1893       C  0.73505487  0.47847174  0.75564498     0.47100
H1894       H  0.73698250  0.48065910  0.78880716    -0.02000
C1895       C  0.75085999  0.51655398  0.69611222    -0.15700
C1896       C  0.68895069  0.44972162  0.69563175    -0.15400
C1897       C  0.75313614  0.45652919  0.69651712    -0.16200
C1898       C  0.75350719  0.51940971  0.73762988    -0.15800
C1899       C  0.69199125  0.45291519  0.73703843    -0.15300
C1900       C  0.75599952  0.45963091  0.73799382    -0.15700
C1901       C  0.72761743  0.57914288  0.63483148     0.04700
C1902       C  0.75816205  0.61738912  0.65166317    -0.11400
C1903       C  0.79023744  0.62200099  0.67462957     0.02200
C1904       C  0.79247463  0.58842723  0.67722972    -0.10000
C1905       C  0.75736364  0.54973834  0.67132785     0.04700
C1906       C  0.72575968  0.54489632  0.64693182    -0.09400
H1907       H  0.75702228  0.64336034  0.64679685     0.10300
H1908       H  0.81973643  0.59218316  0.68861973     0.07800
H1909       H  0.69925886  0.51513301  0.63898170     0.07700
C1910       C  0.83447862  0.47092486  0.63229686     0.04700
C1911       C  0.84002957  0.44217539  0.64832098    -0.11400
C1912       C  0.81158741  0.41351156  0.67256841     0.02200
C1913       C  0.77623409  0.41179778  0.67582879    -0.10000
C1914       C  0.77700737  0.44686719  0.67166872     0.04700
C1915       C  0.80504734  0.47551989  0.64741337    -0.09400
H1916       H  0.86612127  0.44216089  0.64202961     0.10300
H1917       H  0.75021929  0.38534861  0.68596509     0.07800
H1918       H  0.80470500  0.50172186  0.64140578     0.07700
C1919       C  0.84132889  0.47804989  0.80905840     0.04700
C1920       C  0.84524080  0.44748513  0.79294210    -0.11400
C1921       C  0.81581116  0.41794491  0.76493138     0.02200
C1922       C  0.78069247  0.41671567  0.75878276    -0.10000
C1923       C  0.78225215  0.45240646  0.76390368     0.04700
C1924       C  0.81197365  0.48265966  0.79138056    -0.09400
H1925       H  0.87153144  0.44762391  0.80112633     0.10300
H1926       H  0.75375808  0.38954780  0.74643613     0.07800
H1927       H  0.81234956  0.50940873  0.79890283     0.07700
C1928       C  0.73647733  0.58758248  0.80229174     0.04700
C1929       C  0.76674430  0.62522633  0.78931708    -0.11400
C1930       C  0.79596193  0.62756862  0.76582521     0.02200
C1931       C  0.79711758  0.59340113  0.76059515    -0.10000
C1932       C  0.76197872  0.55534588  0.76276759     0.04700
C1933       C  0.73254611  0.55255064  0.78589477    -0.09400
H1934       H  0.76693884  0.65196167  0.79600778     0.10300
H1935       H  0.82326258  0.59618954  0.74985432     0.07800
H1936       H  0.70644503  0.52314782  0.79090854     0.07700
C1937       C  0.88168910  0.49533304  0.87292784    -0.14800
C1938       C  0.86962784  0.50708006  0.84157180    -0.30000
H1939       H  0.86983532  0.46361347  0.87510189     0.14200
H1940       H  0.87986175  0.53846528  0.84015890     0.14700
C1941       C  0.71060634  0.61200992  0.85534013    -0.14800
C1942       C  0.70791024  0.58236663  0.83196791    -0.30000
H1943       H  0.73243359  0.64347976  0.85091990     0.14200
H1944       H  0.68480602  0.55139484  0.83727646     0.14700
C1945       C  0.95377732  0.35132937  0.83524259    -0.14800
C1946       C  0.94247637  0.35441175  0.87150309    -0.30000
H1947       H  0.96814797  0.33540926  0.83049842     0.14200
H1948       H  0.93019962  0.37235575  0.87626114     0.14700
C1949       C  0.86036828  0.49665027  0.60140820    -0.14800
C1950       C  0.84751161  0.51153353  0.57406626    -0.30000
H1951       H  0.88942470  0.50128629  0.59952512     0.14200
H1952       H  0.81783461  0.50556037  0.57491182     0.14700
C1953       C  0.95619723  0.67282618  0.57016956    -0.14800
C1954       C  0.92510335  0.33216875  0.59128975    -0.30000
H1955       H  0.98807019  0.69498540  0.57518439     0.14200
H1956       H  0.89357553  0.31217637  0.58163185     0.14700
C1957       C  0.69012169  0.55681771  0.56963723    -0.14800
C1958       C  0.69769152  0.57598433  0.60580498    -0.30000
H1959       H  0.70365501  0.54042926  0.56273526     0.14200
H1960       H  0.68739248  0.59556583  0.61138864     0.14700
C1961       C  0.70611945  0.34350698  0.32578309    -0.14800
C1962       C  0.68921966  0.35059599  0.35556127    -0.30000
H1963       H  0.70690556  0.31678736  0.32597502     0.14200
H1964       H  0.68762924  0.37679468  0.35645506     0.14700
C1965       C  0.87140718  0.60948471  0.33057287    -0.14800
C1966       C  0.87595080  0.62613774  0.36743697    -0.30000
H1967       H  0.88363709  0.59170451  0.32450928     0.14200
H1968       H  0.86050862  0.64060199  0.37434765     0.14700
C1969       C  0.94947503  0.51379154  0.36560343    -0.14800
C1970       C  0.97558761  0.51563201  0.34071009    -0.30000
H1971       H  0.91770988  0.49105591  0.36086317     0.14200
H1972       H  0.00691588  0.54002276  0.34630837     0.14700
C1973       C  0.85599839  0.57236897  0.08156839    -0.14800
C1974       C  0.85969982  0.60216665  0.10561819    -0.30000
H1975       H  0.83336362  0.54097718  0.08538907     0.14200
H1976       H  0.88343052  0.63306744  0.10085935     0.14700
C1977       C  0.95131618  0.50501407  0.10410496    -0.14800
C1978       C  0.96264936  0.50262219  0.06777702    -0.30000
H1979       H  0.93685533  0.52074121  0.10953211     0.14200
H1980       H  0.97454047  0.48441754  0.06225163     0.14700
C1981       C  0.69767687  0.34254352  0.09483192    -0.14800
C1982       C  0.68259648  0.35371591  0.06568976    -0.30000
H1983       H  0.68960441  0.31173051  0.09458690     0.14200
H1984       H  0.69265637  0.38510143  0.06478892     0.14700
C1985       C  0.72318900  0.70389767  0.12943698     0.04700
C1986       C  0.71993623  0.73504942  0.14496849    -0.11400
C1987       C  0.74969322  0.76479802  0.17249999     0.02200
C1988       C  0.78462773  0.76577014  0.17883618    -0.10000
C1989       C  0.78265372  0.72983428  0.17432178     0.04700
C1990       C  0.75243676  0.69917325  0.14738380    -0.09400
H1991       H  0.69378650  0.73517663  0.13683618     0.10300
H1992       H  0.81163462  0.79289358  0.19119095     0.07800
H1993       H  0.75169977  0.67213533  0.14041366     0.07700
C1994       C  0.83602658  0.71054709  0.26047135     0.47000
H1995       H  0.83799815  0.71268102  0.29361937    -0.02000
C1996       C  0.83106253  0.70521018  0.18265420     0.47100
H1997       H  0.82923482  0.70315524  0.14949533    -0.02000
C1998       C  0.81201221  0.72614122  0.24175532    -0.15700
C1999       C  0.87712061  0.73452958  0.24286410    -0.15400
C2000       C  0.81569479  0.66700778  0.24195973    -0.15800
C2001       C  0.80926200  0.72309734  0.20027787    -0.15800
C2002       C  0.87407713  0.73133379  0.20144684    -0.15300
C2003       C  0.81325651  0.66431269  0.20045813    -0.15700
C2004       C  0.72797718  0.81679331  0.25715763     0.47000
H2005       H  0.72992256  0.81880675  0.29031234    -0.02000
C2006       C  0.72361726  0.81214551  0.17942199     0.47100
H2007       H  0.72183173  0.81021922  0.14627116    -0.02000
C2008       C  0.75119709  0.85815007  0.23933183    -0.15700
C2009       C  0.74398342  0.79303723  0.23935938    -0.15400
C2010       C  0.68510743  0.79590116  0.23851170    -0.15800
C2011       C  0.74916548  0.85562902  0.19788278    -0.15800
C2012       C  0.74199919  0.79088457  0.19788249    -0.15300
C2013       C  0.68265077  0.79342688  0.19698906    -0.15700
C2014       C  0.94629593  0.81082390  0.13589668     0.04700
C2015       C  0.91057511  0.78386550  0.15314019    -0.11400
C2016       C  0.90815032  0.75431332  0.17618718     0.02200
C2017       C  0.94033267  0.75007278  0.17778754    -0.10000
C2018       C  0.97848510  0.78366815  0.17225732     0.04700
C2019       C  0.98118688  0.81291130  0.14819619    -0.09400
H2020       H  0.88480677  0.78543340  0.14815047     0.10300
H2021       H  0.93668047  0.72307732  0.18795616     0.07800
H2022       H  0.67737827  0.83752327  0.13889618     0.07700
C2023       C  0.83247240  0.93017143  0.13574797     0.04700
C2024       C  0.83605983  0.96535623  0.15128950    -0.11400
C2025       C  0.80636487  0.96260389  0.17402560     0.02200
C2026       C  0.77145035  0.92432961  0.17636548    -0.10000
C2027       C  0.77344717  0.89053267  0.17293863     0.04700
C2028       C  0.80276157  0.89278718  0.14969876    -0.09400
H2029       H  0.86082136  0.66135167  0.14699224     0.10300
H2030       H  0.74471452  0.92125263  0.18560508     0.07800
H2031       H  0.80302335  0.86619884  0.14379039     0.07700
C2032       C  0.96417079  0.82106870  0.31016685     0.04700
C2033       C  0.65918272  0.82147904  0.28940018    -0.11400
C2034       C  0.65270538  0.78988633  0.26362405     0.02200
C2035       C  0.94773976  0.75616516  0.26078704    -0.10000
C2036       C  0.91606776  0.76004963  0.26801249     0.04700
C2037       C  0.92409075  0.79166101  0.29547028    -0.09400
H2038       H  0.68918102  0.84797204  0.29586598     0.10300
H2039       H  0.94164918  0.72792107  0.24864306     0.07800
H2040       H  0.89963867  0.79335835  0.30442015     0.07700
C2041       C  0.83461783  0.94015829  0.31055752     0.04700
C2042       C  0.83924073  0.97389654  0.29350515    -0.11400
C2043       C  0.80953776  0.96849000  0.26571857     0.02200
C2044       C  0.77461807  0.92979188  0.25926726    -0.10000
C2045       C  0.77630539  0.89635507  0.26525232     0.04700
C2046       C  0.80507381  0.90128222  0.29387390    -0.09400
H2047       H  0.86541848  0.00375582  0.30191863     0.10300
H2048       H  0.74779806  0.92573960  0.24617599     0.07800
H2049       H  0.80517283  0.87550858  0.30246796     0.07700
C2050       C  0.72977773  0.71108959  0.30523566     0.04700
C2051       C  0.75943052  0.70663768  0.29041111    -0.11400
C2052       C  0.78770681  0.73542292  0.26638518     0.02200
C2053       C  0.78831521  0.77035064  0.26192637    -0.10000
C2054       C  0.75291459  0.76857205  0.26481841     0.04700
C2055       C  0.72432069  0.73989832  0.28905034    -0.09400
H2056       H  0.75981285  0.68047387  0.29651012     0.10300
H2057       H  0.81432711  0.79677968  0.25176693     0.07800
H2058       H  0.69820356  0.73992818  0.29517009     0.07700
O2059       O  0.67440294  0.89049690  0.49966755    -0.79300
O2060       O  0.90582812  0.93723570  0.40290202    -0.64000
O2061       O  0.98924833  0.95092901  0.47129840    -1.10600
C2062       C  0.89112048  0.85443793  0.54566598     1.07600
O2063       O  0.85914470  0.92009229  0.44587482    -0.77200
O2064       O  0.90745406  0.95049998  0.51706095    -0.64800
Ni2065     Ni  0.68991884  0.92955301  0.45967070     1.34900
C2066       C  0.93687465  0.95927736  0.54105926     0.86300
O2067       O  0.98259645  0.99079074  0.40955839    -0.77700
O2068       O  0.70949082  0.96812747  0.41937825    -0.88000
C2069       C  0.87238655  0.92981576  0.41149809     0.85900
O2070       O  0.99605086  0.89945448  0.41926668    -0.66200
O2071       O  0.87498917  0.87332239  0.53726390    -0.85500
C2072       C  0.96619214  0.89008715  0.39553797     0.86700
C2073       C  0.69437052  0.98183167  0.39649027     1.08300
H2074       H  0.90102050  0.87366654  0.44834488     0.40100
O2075       O  0.91282643  0.89825935  0.46514388    -1.08200
O2076       O  0.95344320  0.93997704  0.53972573    -0.64800
Ni2077     Ni  0.95454560  0.90459985  0.49961322     1.26300
O2078       O  0.94896037  0.90876599  0.39709303    -0.65000
O2079       O  0.91921278  0.85804074  0.52675498    -0.77300
C2080       C  0.66892013  0.89551078  0.53582133     0.86100
O2081       O  0.99627842  0.91149905  0.53331677    -0.64500
Ni2082     Ni  0.87117111  0.89830962  0.49065058     1.27400
Ni2083     Ni  0.94753132  0.94434375  0.43674236     1.26100
H2084       H  0.00074450  0.97545050  0.48814479     0.40600
O2085       O  0.96885080  0.85106541  0.00272168    -0.79300
O2086       O  0.95024529  0.96738607  0.89417786    -0.64000
O2087       O  0.97826887  0.91993790  0.97276859    -1.10600
C2088       C  0.88066596  0.91443119  0.04671865     1.07600
O2089       O  0.93449176  0.66847695  0.93678152    -0.77200
O2090       O  0.97130500  0.66925043  0.00824148    -0.64800
Ni2091     Ni  0.98417005  0.87783585  0.95373604     1.34900
C2092       C  0.98127526  0.98984281  0.03312325     0.86300
O2093       O  0.01046499  0.95916889  0.90371414    -0.77700
O2094       O  0.00376727  0.90021947  0.90330726    -0.88000
C2095       C  0.94254532  0.66134051  0.90264423     0.85900
O2096       O  0.93073814  0.84584606  0.92994190    -0.66200
O2097       O  0.89550477  0.94889873  0.03311214    -0.85500
C2098       C  0.91707921  0.85778868  0.90328942     0.86700
C2099       C  0.01779447  0.93440406  0.88938430     1.08300
H2100       H  0.89495554  0.90813731  0.94839692     0.40100
O2101       O  0.91960296  0.92845634  0.96322505    -1.08200
O2102       O  0.96579340  0.95255233  0.03715021    -0.64800
Ni2103     Ni  0.93267759  0.90405052  0.00279454     1.26300
O2104       O  0.93166835  0.89492575  0.89925656    -0.65000
O2105       O  0.88692349  0.88902735  0.03181122    -0.77300
C2106       C  0.95875663  0.85711887  0.03614526     0.86100
O2107       O  0.94645427  0.87977536  0.04140268    -0.64500
Ni2108     Ni  0.91493677  0.97125453  0.98257960     1.27400
Ni2109     Ni  0.96481488  0.94392027  0.93297369     1.26100
H2110       H  0.00275524  0.94055586  0.98763565     0.40600
C2111       C  0.94024569  0.70056331  0.62853017     0.04700
C2112       C  0.90841270  0.69822038  0.64681942    -0.11400
C2113       C  0.91561932  0.72907148  0.67416308     0.02200
C2114       C  0.95443817  0.76374265  0.67856464    -0.10000
C2115       C  0.98651413  0.76043864  0.67174817     0.04700
C2116       C  0.97970846  0.72986269  0.64396646    -0.09400
H2117       H  0.87817296  0.67233869  0.63979661     0.10300
H2118       H  0.95989745  0.79161173  0.69104976     0.07800
H2119       H  0.00448343  0.72837367  0.63569179     0.07700
C2120       C  0.95487605  0.70737488  0.80309739     0.04700
C2121       C  0.91980630  0.70467025  0.79029382    -0.11400
C2122       C  0.92231607  0.73375679  0.76618334     0.02200
C2123       C  0.96040990  0.76787531  0.76138192    -0.10000
C2124       C  0.99309276  0.76440471  0.76350924     0.04700
C2125       C  0.99077016  0.73480999  0.78640617    -0.09400
H2126       H  0.89104843  0.67964227  0.79821145     0.10300
H2127       H  0.96378690  0.79485367  0.75159982     0.07800
H2128       H  0.67932550  0.72993837  0.79129582     0.07700
C2129       C  0.84024817  0.70123971  0.68188132     0.47000
H2130       H  0.83764360  0.69904978  0.64872404    -0.02000
C2131       C  0.84555390  0.70606792  0.75959755     0.47100
H2132       H  0.84768320  0.70799801  0.79274793    -0.02000
C2133       C  0.88344441  0.72275843  0.69993484    -0.15700
C2134       C  0.82379998  0.72432467  0.70005831    -0.15400
C2135       C  0.81466008  0.98988485  0.69502513    -0.15800
C2136       C  0.88638615  0.72518374  0.74148763    -0.15800
C2137       C  0.82616776  0.72657503  0.74151404    -0.15300
C2138       C  0.81731947  0.99274744  0.73633726    -0.15700
C2139       C  0.72938894  0.80384488  0.68000645     0.47000
H2140       H  0.72723262  0.80091654  0.64685590    -0.02000
C2141       C  0.73460057  0.81056245  0.75773544     0.47100
H2142       H  0.73649821  0.81333672  0.79087964    -0.02000
C2143       C  0.75050738  0.84757710  0.69718141    -0.15700
C2144       C  0.68870133  0.78201046  0.69779461    -0.15400
C2145       C  0.75218980  0.78729702  0.69946688    -0.16200
C2146       C  0.75328222  0.85112063  0.73872661    -0.15800
C2147       C  0.69157577  0.78530722  0.73910484    -0.15300
C2148       C  0.75516304  0.79099983  0.74088907    -0.15700
C2149       C  0.72388484  0.90673350  0.63379222     0.04700
C2150       C  0.75493575  0.94568450  0.64818174    -0.11400
C2151       C  0.78777261  0.95149446  0.67056550     0.02200
C2152       C  0.79039594  0.91836498  0.67503410    -0.10000
C2153       C  0.75536218  0.87955107  0.67138741     0.04700
C2154       C  0.72274155  0.87334513  0.64752364    -0.09400
H2155       H  0.75339729  0.97124012  0.64221115     0.10300
H2156       H  0.81805497  0.92293870  0.68637829     0.07800
H2157       H  0.69615077  0.84331740  0.64114345     0.07700
C2158       C  0.83674493  0.80761625  0.63832512     0.04700
C2159       C  0.84231502  0.77791871  0.65161708    -0.11400
C2160       C  0.81368872  0.74786769  0.67477135     0.02200
C2161       C  0.77765911  0.74481162  0.67789443    -0.10000
C2162       C  0.77767597  0.77962046  0.67537945     0.04700
C2163       C  0.80653898  0.81035154  0.65366993    -0.09400
H2164       H  0.86905294  0.77911567  0.64545066     0.10300
H2165       H  0.75181846  0.71752615  0.68708868     0.07800
H2166       H  0.80538285  0.83627487  0.64854637     0.07700
C2167       C  0.84016051  0.80952574  0.81309244     0.04700
C2168       C  0.84532826  0.78022608  0.79595524    -0.11400
C2169       C  0.81677987  0.75113217  0.76725726     0.02200
C2170       C  0.78117521  0.74896662  0.76086879    -0.10000
C2171       C  0.78144411  0.78386654  0.76712583     0.04700
C2172       C  0.81024460  0.81358161  0.79571487    -0.09400
H2173       H  0.87208855  0.78109772  0.80375942     0.10300
H2174       H  0.75483257  0.72179410  0.74764660     0.07800
H2175       H  0.80976436  0.83968699  0.80401660     0.07700
C2176       C  0.73557719  0.91992542  0.80092211     0.04700
C2177       C  0.76485077  0.95698662  0.78606502    -0.11400
C2178       C  0.79345742  0.95863244  0.76193954     0.02200
C2179       C  0.79568641  0.92513337  0.75865392    -0.10000
C2180       C  0.76133063  0.88720602  0.76274654     0.04700
C2181       C  0.73205018  0.88469127  0.78594161    -0.09400
H2182       H  0.76462571  0.98361900  0.79182242     0.10300
H2183       H  0.82175875  0.92791453  0.74770008     0.07800
H2184       H  0.70645620  0.85540496  0.79213980     0.07700
C2185       C  0.88497440  0.82780472  0.87402980    -0.14800
C2186       C  0.86837024  0.83837214  0.84580747    -0.30000
H2187       H  0.87616179  0.79677637  0.87445572     0.14200
H2188       H  0.87539158  0.86882956  0.84681801     0.14700
C2189       C  0.71171415  0.94520463  0.85533151    -0.14800
C2190       C  0.70739649  0.91538084  0.83081547    -0.30000
H2191       H  0.73466547  0.97653203  0.85155481     0.14200
H2192       H  0.68339621  0.88459051  0.83558821     0.14700
C2193       C  0.95455960  0.68240628  0.83405796    -0.14800
C2194       C  0.94073769  0.68316229  0.86946443    -0.30000
H2195       H  0.96969042  0.66721811  0.82952942     0.14200
H2196       H  0.92860015  0.70120930  0.87447568     0.14700
C2197       C  0.86127021  0.83676145  0.60930268    -0.14800
C2198       C  0.87718150  0.82851449  0.57938631    -0.30000
H2199       H  0.86122455  0.86389741  0.60893505     0.14200
H2200       H  0.87814556  0.80193930  0.57859172     0.14700
C2201       C  0.95166436  0.99153712  0.57330465    -0.14800
C2202       C  0.93009448  0.67097676  0.59488781    -0.30000
H2203       H  0.98161269  0.00492353  0.58682963     0.14200
H2204       H  0.89867258  0.64691711  0.58889130     0.14700
C2205       C  0.68825341  0.88681948  0.56805404    -0.14800
C2206       C  0.69284252  0.90225780  0.60553412    -0.30000
H2207       H  0.70377237  0.87268797  0.56010783     0.14200
H2208       H  0.68039921  0.91964231  0.61266497     0.14700
C2209       C  0.70359325  0.68502708  0.33589715    -0.14800
C2210       C  0.71652592  0.67039068  0.36351526    -0.30000
H2211       H  0.67423699  0.67978768  0.33726267     0.14200
H2212       H  0.74653043  0.67713970  0.36317836     0.14700
C2213       C  0.86159627  0.94530634  0.34415301    -0.14800
C2214       C  0.84725512  0.93095499  0.37949085    -0.30000
H2215       H  0.89320871  0.96062918  0.33966442     0.14200
H2216       H  0.81588097  0.91763383  0.38393475     0.14700
C2217       C  0.95111494  0.85749243  0.36356173    -0.14800
C2218       C  0.97612382  0.85189215  0.34385652    -0.30000
H2219       H  0.91963546  0.84065269  0.35399336     0.14200
H2220       H  0.00779255  0.87129514  0.35316277     0.14700
C2221       C  0.85605854  0.90469994  0.08145281    -0.14800
C2222       C  0.86058904  0.93472906  0.10580422    -0.30000
H2223       H  0.83333451  0.87339622  0.08559099     0.14200
H2224       H  0.88444866  0.96548210  0.10072001     0.14700
C2225       C  0.94644861  0.83585204  0.10492034    -0.14800
C2226       C  0.96185058  0.83665592  0.07005984    -0.30000
H2227       H  0.92950170  0.84923203  0.10861000     0.14200
H2228       H  0.97594083  0.82037236  0.06576172     0.14700
C2229       C  0.69449256  0.67474043  0.09706846    -0.14800
C2230       C  0.68077827  0.68619021  0.06679830    -0.30000
H2231       H  0.68547261  0.64364779  0.09751146     0.14200
H2232       H  0.69149763  0.71770908  0.06539766     0.14700
loop_ 
_geom_bond_atom_site_label_1 
_geom_bond_atom_site_label_2 
_geom_bond_distance 
_geom_bond_site_symmetry_2 
_ccdc_geom_bond_type 
C1            C2   1.410       .  A
C1            C6   1.412       .  A
C1          C245   1.478       .  S
C2            C3   1.399       .  A
C2            H7   1.084       .  S
C3            C4   1.402       .  A
C3           C28   1.501       .  S
C4            C5   1.402       .  A
C4            H8   1.075       .  S
C5            C6   1.406       .  A
C5           C17   1.504       .  S
C6            H9   1.084       .  S
C10          H11   1.112       .  S
C10          C16   1.534   1_545  S
C10          C15   1.528       .  S
C10          C14   1.536       .  S
C12          H13   1.112       .  S
C12          C18   1.537       .  S
C12          C17   1.539       .  S
C12          C19   1.540   1_545  S
C14          C68   1.485       .  S
C14          C17   1.387       .  D
C15          C52   1.494       .  S
C15          C18   1.388       .  D
C16         C555   1.492       .  S
C16          C19   1.392       .  D
C18          C32   1.485       .  S
C19         C537   1.497       .  S
C20          H21   1.112       .  S
C20          C26   1.538       .  S
C20          C25   1.537       .  S
C20          C24   1.536       .  S
C22          H23   1.111       .  S
C22          C28   1.538       .  S
C22          C27   1.531       .  S
C22          C29   1.543       .  S
C24          C61   1.491       .  S
C24          C27   1.384       .  D
C25          C70   1.493       .  S
C25          C28   1.388       .  D
C26          C50   1.502   1_455  S
C26          C29   1.397       .  D
C27          C43   1.485       .  S
C29        C1522   1.500   1_455  S
C30          C31   1.400       .  A
C30          C35   1.408       .  A
C30         C241   1.466       .  S
C31          C32   1.397       .  A
C31          H36   1.084       .  S
C32          C33   1.402       .  A
C33          C34   1.400       .  A
C33          H37   1.077       .  S
C34          C35   1.403       .  A
C34         C773   1.497       .  S
C35         H782   1.083       .  S
H38        C1523   1.083   1_455  S
C39          C40   1.404       .  A
C39          C44   1.409       .  A
C39         C238   1.477       .  S
C40          C41   1.399       .  A
C40         H293   1.083       .  S
C41          C42   1.397       .  A
C41         C267   1.488       .  S
C42          C43   1.399       .  A
C42          H46   1.079       .  S
C43          C44   1.404       .  A
C44          H47   1.083       .  S
H45         C536   1.084       .  S
C48          C53   1.416       .  A
C48         C793   1.407       .  A
C48         C234   1.481       .  S
C49          C50   1.403       .  A
C49        C1536   1.411       .  A
C49          H54   1.083   1_655  S
C50        C1539   1.396       .  A
C51          C52   1.396       .  A
C51         C794   1.393       .  A
C51          H55   1.075       .  S
C52          C53   1.408       .  A
C53          H56   1.082       .  S
C57          C58   1.406       .  A
C57          C62   1.403       .  A
C57         C229   1.466       .  S
C58          C59   1.404       .  A
C58          H63   1.083       .  S
C59          C60   1.403       .  A
C59         C264   1.498       .  S
C60          C61   1.404       .  A
C60          H64   1.078       .  S
C61          C62   1.397       .  A
C62          H65   1.084       .  S
C66          C67   1.400       .  A
C66          C71   1.410       .  A
C66         C225   1.469       .  S
C67          C68   1.394       .  A
C67          H72   1.085       .  S
C68          C69   1.400       .  A
C69          C70   1.400       .  A
C69          H73   1.078       .  S
C70          C71   1.405       .  A
C71          H74   1.083       .  S
O75         Ni81   1.938       .  S
O75          C96   1.274       .  A
O76         Ni99   1.887       .  S
O76          C85   1.263       .  A
O77         Ni99   1.898       .  S
O77         Ni93   1.902       .  S
O77        Ni825   1.911       .  S
O77         H100   0.966       .  S
C78         C214   1.470       .  S
C78          O95   1.274       .  A
C78          O87   1.276       .  A
O79         Ni98   1.941       .  S
O79          C85   1.273       .  A
O80         Ni98   1.911       .  S
O80          C82   1.271       .  A
Ni81         O84   1.932       .  S
Ni81       O1574   1.916   1_455  S
Ni81       O1565   1.921   1_455  S
C82         C217   1.469       .  S
C82          O92   1.266       .  A
O83         Ni99   1.908       .  S
O83         C833   1.274       .  A
O84          C89   1.274       .  A
C85         C230   1.471       .  S
O86        Ni825   1.910       .  S
O86          C88   1.270       .  A
O87         Ni98   1.925       .  S
C88         C233   1.469       .  S
C88          O94   1.266       .  A
C89         C474   1.469       .  S
C89        O1571   1.262   1_455  A
H90          O91   0.966       .  S
O91         Ni99   1.904       .  S
O91         Ni93   1.898       .  S
O91         Ni98   1.909       .  S
O92         Ni93   1.917       .  S
Ni93         O97   1.886       .  S
Ni93         O95   1.909       .  S
O94         Ni99   1.917       .  S
C96         C221   1.466       .  S
C96        O1585   1.261   1_455  A
O97         C840   1.264       .  A
O101       Ni107   1.924   1_554  S
O101        C122   1.269       .  A
O102       Ni125   1.884       .  S
O102        C359   1.264       .  A
O103       Ni107   1.917       .  S
O103       Ni125   1.902       .  S
O103       Ni119   1.917   1_556  S
O103        H126   0.972       .  S
C104        C237   1.472       .  S
C104        O121   1.265       .  A
C104        O113   1.273       .  A
O105       Ni620   1.922       .  S
O105        C111   1.270       .  A
O106       Ni620   1.912   1_544  S
O106        C604   1.273   1_545  A
Ni107       O110   1.922       .  S
Ni107       O112   1.912       .  S
C108       C1238   1.473       .  S
C108        O118   1.274       .  A
C108        O354   1.272       .  A
O109       Ni125   1.917       .  S
O109        C115   1.268       .  A
O110        C115   1.270       .  A
C111        C210   1.464   1_565  S
C111        O598   1.264       .  A
O112        C114   1.274       .  A
O113       Ni124   1.935   1_554  S
C114        C201   1.481       .  S
C114        O120   1.277       .  A
C115        C949   1.478       .  S
H116        O117   0.966       .  S
O117       Ni125   1.916       .  S
O117       Ni119   1.898   1_556  S
O117       Ni124   1.921       .  S
O118       Ni119   1.935       .  S
Ni119       O123   1.887       .  S
Ni119       O121   1.907       .  S
O120       Ni125   1.943       .  S
C122        C242   1.467       .  S
C122        O123   1.263       .  A
Ni124       O353   1.930       .  S
Ni124       O354   1.912   1_556  S
C127        C128   1.404       .  A
C127        C132   1.416       .  A
C127        C218   1.482   1_545  S
C128        C129   1.399       .  A
C128        H133   1.083       .  S
C129        C130   1.393       .  A
C129        C149   1.490       .  S
C130        C131   1.395       .  A
C130        H134   1.076       .  S
C131        C132   1.411       .  A
C131        C904   1.494       .  S
C132        H135   1.083       .  S
C136        C137   1.406       .  A
C136        C141   1.398       .  A
C136        C209   1.463       .  S
C137        C138   1.401       .  A
C137        H142   1.084       .  S
C138        C139   1.399       .  A
C138        C152   1.491       .  S
C139        C140   1.400       .  A
C139        H143   1.078       .  S
C140        C141   1.396       .  A
C140        C907   1.481       .  S
C141        H888   1.084       .  S
H144       C1629   1.084   1_455  S
C145        H146   1.112       .  S
C145        C150   1.532       .  S
C145        C149   1.530       .  S
C145        C647   1.533   1_545  S
C147        H148   1.111       .  S
C147        C153   1.533       .  S
C147        C152   1.540       .  S
C147        C650   1.533   1_545  S
C149        C152   1.391       .  D
C150        C176   1.489       .  S
C150        C153   1.389       .  D
C151        C167   1.490       .  S
C151        C393   1.539       .  S
C151        C154   1.391       .  D
C153        C185   1.496       .  S
C154        C194   1.503       .  S
C154        C395   1.532       .  S
C155        H156   1.111       .  S
C155        C161   1.537       .  S
C155        C160   1.535       .  S
C155        C159   1.539       .  S
C157        H158   1.112       .  S
C157        C163   1.535       .  S
C157        C162   1.535       .  S
C157        C164   1.536       .  S
C159        C169   1.490       .  S
C159        C162   1.391       .  D
C160       C1619   1.506   1_455  S
C160        C163   1.388       .  D
C161        C178   1.489       .  S
C161        C164   1.392       .  D
C162        C196   1.497       .  S
C163       C1628   1.483   1_455  S
C164        C187   1.504       .  S
C165        C166   1.405       .  A
C165        C170   1.403       .  A
C165        C222   1.462       .  S
C166        C167   1.398       .  A
C166        H171   1.084       .  S
C167        C168   1.397       .  A
C168        C169   1.398       .  A
C168        H172   1.075       .  S
C169        C170   1.402       .  A
C170        H173   1.083       .  S
C174        C175   1.407       .  A
C174        C179   1.410       .  A
C174        C213   1.478       .  S
C175        C176   1.405       .  A
C175        H180   1.084       .  S
C176        C177   1.396       .  A
C177        C178   1.395       .  A
C177        H181   1.077       .  S
C178        C179   1.400       .  A
C179        H182   1.083       .  S
C183        C184   1.412       .  A
C183        C188   1.415       .  A
C183        C202   1.487       .  S
C184        C185   1.402       .  A
C184        H189   1.083       .  S
C185        C186   1.397       .  A
C186        C187   1.398       .  A
C186        H190   1.075       .  S
C187        C188   1.410       .  A
C188        H191   1.083       .  S
C192        C193   1.418       .  A
C192        C197   1.409       .  A
C192        C206   1.491       .  S
C193        C194   1.413       .  A
C193        H198   1.082       .  S
C194        C195   1.399       .  A
C195        C196   1.398       .  A
C195        H199   1.077       .  S
C196        C197   1.402       .  A
C197        H200   1.084       .  S
C201        C202   1.352       .  D
C201        H203   1.087       .  S
C202        H204   1.087       .  S
C205       C1603   1.488       .  S
C205        C206   1.350       .  D
C205        H207   1.085       .  S
C206        H208   1.088       .  S
C209        C210   1.339       .  D
C209        H211   1.087       .  S
C210        H212   1.088       .  S
C213        C214   1.346       .  D
C213        H215   1.087       .  S
C214        H216   1.087       .  S
C217        C466   1.342       .  D
C217        H219   1.084       .  S
C218        C713   1.342   1_565  D
C218        H220   1.089       .  S
C221        C222   1.344       .  D
C221        H223   1.087       .  S
C222        H224   1.087       .  S
C225        C226   1.340       .  D
C225        H227   1.089   1_545  S
C226        C585   1.466   1_545  S
C226        H228   1.086       .  S
C229        C230   1.344       .  D
C229        H231   1.087       .  S
C230        H232   1.087       .  S
C233        C234   1.342       .  D
C233        H235   1.085       .  S
C234        H236   1.089       .  S
C237        C238   1.344       .  D
C237        H239   1.085       .  S
C238        H240   1.088       .  S
C241        C242   1.341       .  D
C241        H243   1.087       .  S
C242        H244   1.088       .  S
C245        C246   1.350       .  D
C245        H247   1.087   1_545  S
C246       C2092   1.474   1_445  S
C246        H248   1.087       .  S
C249        C250   1.410       .  A
C249        C254   1.412       .  A
C249        C493   1.480       .  S
C250        C251   1.398       .  A
C250        H255   1.084       .  S
C251        C252   1.400       .  A
C251        C276   1.496       .  S
C252        C253   1.401       .  A
C252        H256   1.076       .  S
C253        C254   1.409       .  A
C253        C265   1.503       .  S
C254        H257   1.083       .  S
C258        H259   1.112       .  S
C258        C264   1.541       .  S
C258        C263   1.533       .  S
C258        C262   1.542       .  S
C260        H261   1.112       .  S
C260        C266   1.536       .  S
C260        C265   1.534       .  S
C260        C267   1.535       .  S
C262        C316   1.487       .  S
C262        C265   1.387       .  D
C263        C300   1.496       .  S
C263        C266   1.388       .  D
C264        C267   1.390       .  D
C266        C280   1.487       .  S
C268        H269   1.112       .  S
C268        C274   1.535       .  S
C268        C273   1.531       .  S
C268        C272   1.535       .  S
C270        H271   1.111       .  S
C270        C276   1.543       .  S
C270        C275   1.538       .  S
C270        C277   1.548       .  S
C272        C309   1.486       .  S
C272        C275   1.386       .  D
C273        C318   1.497       .  S
C273        C276   1.389       .  D
C274        C298   1.501   1_455  S
C274        C277   1.394       .  D
C275        C291   1.501       .  S
C277       C1770   1.498   1_455  S
C278        C279   1.402       .  A
C278        C283   1.401       .  A
C278        C489   1.461       .  S
C279        C280   1.395       .  A
C279        H284   1.084       .  S
C280        C281   1.401       .  A
C281        C282   1.400       .  A
C281        H285   1.077       .  S
C282        C283   1.402       .  A
C282       C1021   1.490       .  S
C283       H1030   1.083       .  S
H286       C1771   1.084   1_455  S
C287        C288   1.402       .  A
C287        C292   1.420       .  A
C287        C486   1.484       .  S
C288        C289   1.399       .  A
C288        H541   1.083       .  S
C289        C290   1.398       .  A
C289        C515   1.494       .  S
C290        C291   1.400       .  A
C290        H294   1.076       .  S
C291        C292   1.410       .  A
C292        H295   1.082       .  S
C296       C1041   1.406       .  A
C296        C301   1.414       .  A
C296        C482   1.480       .  S
C297       C1784   1.409       .  A
C297        C298   1.402       .  A
C297        H302   1.083   1_655  S
C298       C1787   1.397       .  A
C299       C1042   1.397       .  A
C299        C300   1.399       .  A
C299        H303   1.076       .  S
C300        C301   1.406       .  A
C301        H304   1.082       .  S
C305        C306   1.408       .  A
C305        C310   1.402       .  A
C305        C477   1.469       .  S
C306        C307   1.407       .  A
C306        H311   1.083       .  S
C307        C308   1.399       .  A
C307        C512   1.498       .  S
C308        C309   1.401       .  A
C308        H312   1.077       .  S
C309        C310   1.396       .  A
C310        H313   1.084       .  S
C314        C315   1.400       .  A
C314        C319   1.411       .  A
C314        C473   1.470       .  S
C315        C316   1.392       .  A
C315        H320   1.085       .  S
C316        C317   1.401       .  A
C317        C318   1.402       .  A
C317        H321   1.078       .  S
C318        C319   1.408       .  A
C319        H322   1.083       .  S
O323       Ni329   1.939       .  S
O323        C344   1.272       .  A
O324       Ni347   1.888       .  S
O324        C333   1.264       .  A
O325      Ni1073   1.907       .  S
O325       Ni347   1.895       .  S
O325       Ni341   1.903       .  S
O325        H348   0.966       .  S
C326        C462   1.474       .  S
C326        O343   1.276       .  A
C326        O335   1.278       .  A
O327       Ni346   1.944       .  S
O327        C333   1.274       .  A
O328       Ni346   1.911       .  S
O328        C330   1.271       .  A
Ni329       O332   1.925       .  S
Ni329      O1822   1.910   1_455  S
Ni329      O1813   1.911   1_455  S
C330        C465   1.468       .  S
C330        O340   1.266       .  A
O331       Ni347   1.907       .  S
O331       C1081   1.274       .  A
O332        C337   1.276       .  A
C333        C478   1.474       .  S
O334      Ni1073   1.910       .  S
O334        C336   1.271       .  A
O335       Ni346   1.926       .  S
C336        C481   1.468       .  S
C336        O342   1.266       .  A
C337        C722   1.470       .  S
C337       O1819   1.274   1_455  A
H338        O339   0.966       .  S
O339       Ni347   1.902       .  S
O339       Ni341   1.896       .  S
O339       Ni346   1.906       .  S
O340       Ni341   1.917       .  S
Ni341       O345   1.884       .  S
Ni341       O343   1.917       .  S
O342       Ni347   1.916       .  S
C344        C469   1.467       .  S
C344       O1833   1.262   1_455  A
O345       C1088   1.264       .  A
O349       Ni355   1.925   1_554  S
O349        C370   1.264       .  A
O350       Ni373   1.905       .  S
O350        C607   1.268       .  A
O351       Ni355   1.921       .  S
O351       Ni373   1.908       .  S
O351       Ni367   1.893   1_556  S
O351        H374   0.966       .  S
C352        C485   1.471       .  S
C352        O369   1.261       .  A
C352        O361   1.279       .  A
O353        C359   1.272       .  A
Ni355       O358   1.903       .  S
Ni355       O360   1.904       .  S
C356       C1486   1.468       .  S
C356        O602   1.264       .  A
C356        O366   1.272       .  A
O357       Ni373   1.929       .  S
O357        C363   1.281       .  A
O358        C363   1.270       .  A
C359        C458   1.467       .  S
O360        C362   1.266       .  A
O361       Ni372   1.951   1_554  S
C362        C449   1.462       .  S
C362        O368   1.265       .  A
C363       C1197   1.466       .  S
H364        O365   0.966       .  S
O365       Ni373   1.922       .  S
O365       Ni367   1.905   1_556  S
O365       Ni372   1.918       .  S
O366       Ni367   1.931       .  S
Ni367       O371   1.888       .  S
Ni367       O369   1.887       .  S
O368       Ni373   1.903       .  S
C370        C490   1.457       .  S
C370        O371   1.257       .  A
Ni372       O601   1.936       .  S
Ni372       O602   1.894   1_556  S
C375        C376   1.405       .  A
C375        C380   1.414       .  A
C375        C466   1.480       .  S
C376        C377   1.400       .  A
C376        H381   1.083       .  S
C377        C378   1.397       .  A
C377        C397   1.498       .  S
C378        C379   1.400       .  A
C378        H382   1.075       .  S
C379        C380   1.406       .  A
C379       C1152   1.497       .  S
C380        H383   1.082       .  S
C384        C385   1.407       .  A
C384        C389   1.402       .  A
C384        C457   1.463       .  S
C385        C386   1.402       .  A
C385        H390   1.083       .  S
C386        C387   1.404       .  A
C386        C400   1.503       .  S
C387        C388   1.406       .  A
C387        H391   1.076       .  S
C388        C389   1.397       .  A
C388       C1155   1.494       .  S
C389       H1136   1.084       .  S
H392       C1877   1.084   1_455  S
C393        H394   1.111       .  S
C393        C398   1.533       .  S
C393        C397   1.535       .  S
C395        H396   1.112       .  S
C395        C401   1.539       .  S
C395        C400   1.550       .  S
C397        C400   1.393       .  D
C398        C424   1.501       .  S
C398        C401   1.387       .  D
C399        C415   1.485       .  S
C399        C641   1.533       .  S
C399        C402   1.384       .  D
C401        C433   1.487       .  S
C402        C442   1.492       .  S
C402        C643   1.533       .  S
C403        H404   1.111       .  S
C403        C409   1.540       .  S
C403        C408   1.539       .  S
C403        C407   1.544       .  S
C405        H406   1.112       .  S
C405        C411   1.528       .  S
C405        C410   1.532       .  S
C405        C412   1.531       .  S
C407        C417   1.490       .  S
C407        C410   1.391       .  D
C408       C1867   1.501   1_455  S
C408        C411   1.389       .  D
C409        C426   1.496       .  S
C409        C412   1.389       .  D
C410        C444   1.498       .  S
C411       C1876   1.483   1_455  S
C412        C435   1.493       .  S
C413        C414   1.401       .  A
C413        C418   1.403       .  A
C413        C470   1.462       .  S
C414        C415   1.397       .  A
C414        H419   1.084       .  S
C415        C416   1.401       .  A
C416        C417   1.400       .  A
C416        H420   1.078       .  S
C417        C418   1.401       .  A
C418        H421   1.083       .  S
C422        C423   1.410       .  A
C422        C427   1.411       .  A
C422        C461   1.484       .  S
C423        C424   1.407       .  A
C423        H428   1.084       .  S
C424        C425   1.401       .  A
C425        C426   1.400       .  A
C425        H429   1.076       .  S
C426        C427   1.399       .  A
C427        H430   1.083       .  S
C431        C432   1.404       .  A
C431        C436   1.406       .  A
C431        C450   1.470       .  S
C432        C433   1.392       .  A
C432        H437   1.084       .  S
C433        C434   1.398       .  A
C434        C435   1.400       .  A
C434        H438   1.076       .  S
C435        C436   1.406       .  A
C436        H439   1.083       .  S
C440        C441   1.412       .  A
C440        C445   1.410       .  A
C440        C454   1.487       .  S
C441        C442   1.405       .  A
C441        H446   1.082       .  S
C442        C443   1.400       .  A
C443        C444   1.398       .  A
C443        H447   1.078       .  S
C444        C445   1.403       .  A
C445        H448   1.083       .  S
C449        C450   1.346       .  D
C449        H451   1.087       .  S
C450        H452   1.087       .  S
C453       C1851   1.481       .  S
C453        C454   1.350       .  D
C453        H455   1.084       .  S
C454        H456   1.088       .  S
C457        C458   1.342       .  D
C457        H459   1.087       .  S
C458        H460   1.088       .  S
C461        C462   1.348       .  D
C461        H463   1.087       .  S
C462        H464   1.086       .  S
C465        C714   1.342       .  D
C465        H467   1.085       .  S
C466        H468   1.089       .  S
C469        C470   1.343       .  D
C469        H471   1.087       .  S
C470        H472   1.087       .  S
C473        C474   1.340       .  D
C473        H475   1.089       .  S
C474        H476   1.086       .  S
C477        C478   1.345       .  D
C477        H479   1.087       .  S
C478        H480   1.087       .  S
C481        C482   1.343       .  D
C481        H483   1.085       .  S
C482        H484   1.089       .  S
C485        C486   1.338       .  D
C485        H487   1.085       .  S
C486        H488   1.088       .  S
C489        C490   1.340       .  D
C489        H491   1.087       .  S
C490        H492   1.088       .  S
C493        C494   1.350       .  D
C493        H495   1.087       .  S
C494       C1596   1.475   1_455  S
C494        H496   1.087       .  S
C497        C498   1.409       .  A
C497        C502   1.410       .  A
C497        C741   1.478       .  S
C498        C499   1.399       .  A
C498        H503   1.084       .  S
C499        C500   1.399       .  A
C499        C524   1.495       .  S
C500        C501   1.400       .  A
C500        H504   1.075       .  S
C501        C502   1.408       .  A
C501        C513   1.501       .  S
C502        H505   1.083       .  S
C506        H507   1.111       .  S
C506        C512   1.542       .  S
C506        C511   1.536       .  S
C506        C510   1.544       .  S
C508        H509   1.112       .  S
C508        C514   1.534       .  S
C508        C513   1.530       .  S
C508        C515   1.536       .  S
C510        C564   1.494       .  S
C510        C513   1.389       .  D
C511        C548   1.496       .  S
C511        C514   1.385       .  D
C512        C515   1.394       .  D
C514        C528   1.487       .  S
C516        H517   1.112       .  S
C516        C522   1.537       .  S
C516        C521   1.532       .  S
C516        C520   1.534       .  S
C518        H519   1.111       .  S
C518        C524   1.539       .  S
C518        C523   1.532       .  S
C518        C525   1.545       .  S
C520        C557   1.486       .  S
C520        C523   1.386       .  D
C521        C566   1.495       .  S
C521        C524   1.389       .  D
C522        C546   1.503   1_455  S
C522        C525   1.394       .  D
C523        C539   1.491       .  S
C525       C2018   1.496   1_455  S
C526        C527   1.400       .  A
C526        C531   1.407       .  A
C526        C737   1.462       .  S
C527        C528   1.397       .  A
C527        H532   1.084       .  S
C528        C529   1.403       .  A
C529        C530   1.401       .  A
C529        H533   1.077       .  S
C530        C531   1.401       .  A
C530       C1269   1.497       .  S
C531       H1278   1.084       .  S
H534       C2019   1.083   1_455  S
C535        C536   1.410       .  A
C535        C540   1.410       .  A
C535        C734   1.481       .  S
C536        C537   1.401       .  A
C537        C538   1.399       .  A
C538        C539   1.400       .  A
C538        H542   1.078       .  S
C539        C540   1.404       .  A
C540        H543   1.082       .  S
C544       C1289   1.407       .  A
C544        C549   1.415       .  A
C544        C730   1.481       .  S
C545       C2032   1.409       .  A
C545        C546   1.401       .  A
C545        H550   1.084   1_655  S
C546       C2035   1.399       .  A
C547       C1290   1.398       .  A
C547        C548   1.400       .  A
C547        H551   1.076       .  S
C548        C549   1.404       .  A
C549        H552   1.082       .  S
C553        C554   1.407       .  A
C553        C558   1.404       .  A
C553        C725   1.470       .  S
C554        C555   1.407       .  A
C554        H559   1.083   1_565  S
C555        C556   1.396       .  A
C556        C557   1.397       .  A
C556        H560   1.077       .  S
C557        C558   1.399       .  A
C558        H561   1.084       .  S
C562        C563   1.410       .  A
C562        C567   1.407       .  A
C562        C721   1.477       .  S
C563        C564   1.399       .  A
C563        H568   1.083       .  S
C564        C565   1.399       .  A
C565        C566   1.400       .  A
C565        H569   1.076       .  S
C566        C567   1.404       .  A
C567        H570   1.084       .  S
O571       Ni577   1.943       .  S
O571        C592   1.275       .  A
O572       Ni595   1.891       .  S
O572        C581   1.265       .  A
O573      Ni1321   1.910       .  S
O573       Ni595   1.899       .  S
O573       Ni589   1.905       .  S
O573        H596   0.966       .  S
C574        C710   1.472       .  S
C574        O591   1.275       .  A
C574        O583   1.278       .  A
O575       Ni594   1.947       .  S
O575        C581   1.276       .  A
O576       Ni594   1.918       .  S
O576        C578   1.272       .  A
Ni577       O580   1.935       .  S
Ni577      O2070   1.918   1_455  S
Ni577      O2061   1.921   1_455  S
C578        C713   1.471   1_565  S
C578        O588   1.265       .  A
O579       Ni595   1.909       .  S
O579       C1329   1.274       .  A
O580        C585   1.274       .  A
C581        C726   1.477       .  S
O582      Ni1321   1.911       .  S
O582        C584   1.271       .  A
O583       Ni594   1.928       .  S
C584        C729   1.468       .  S
C584        O590   1.267       .  A
C585       O2067   1.261   1_455  A
H586        O587   0.966       .  S
O587       Ni595   1.903       .  S
O587       Ni589   1.897       .  S
O587       Ni594   1.909       .  S
O588       Ni589   1.914       .  S
Ni589       O593   1.887       .  S
Ni589       O591   1.909       .  S
O590       Ni595   1.917       .  S
C592        C717   1.472       .  S
C592       O2081   1.261   1_455  A
O593       C1336   1.263       .  A
O597       Ni603   1.922   1_554  S
O597        C618   1.269       .  A
O598       Ni621   1.889       .  S
O599       Ni603   1.920       .  S
O599       Ni621   1.903       .  S
O599       Ni615   1.920   1_556  S
O599        H622   0.966       .  S
C600        C733   1.476       .  S
C600        O617   1.268       .  A
C600        O609   1.271       .  A
O601        C607   1.273       .  A
Ni603       O606   1.923       .  S
Ni603       O608   1.910       .  S
C604        C990   1.474   1_565  S
C604        O614   1.274       .  A
O605       Ni621   1.911       .  S
O605        C611   1.266       .  A
O606        C611   1.271       .  A
C607        C706   1.468       .  S
O608        C610   1.273       .  A
O609       Ni620   1.926   1_554  S
C610        C697   1.474       .  S
C610        O616   1.275       .  A
C611       C1445   1.472       .  S
H612        O613   0.966       .  S
O613       Ni621   1.915       .  S
O613       Ni615   1.899   1_556  S
O613       Ni620   1.917       .  S
O614       Ni615   1.936       .  S
Ni615       O619   1.885       .  S
Ni615       O617   1.915       .  S
O616       Ni621   1.935       .  S
C618        C738   1.464       .  S
C618        O619   1.264       .  A
C623        C624   1.405       .  A
C623        C628   1.414       .  A
C623        C714   1.479       .  S
C624        C625   1.398       .  A
C624        H629   1.084       .  S
C625        C626   1.396       .  A
C625        C645   1.493       .  S
C626        C627   1.398       .  A
C626        H630   1.076       .  S
C627        C628   1.406       .  A
C627       C1400   1.494       .  S
C628        H631   1.082       .  S
C632        C633   1.405       .  A
C632        C637   1.409       .  A
C632        C705   1.473       .  S
C633        C634   1.403       .  A
C633        H638   1.084       .  S
C634        C635   1.403       .  A
C634        C648   1.495       .  S
C635        C636   1.403       .  A
C635        H639   1.078       .  S
C636        C637   1.403       .  A
C636       C1403   1.498       .  S
C637       H1384   1.084       .  S
H640       C2125   1.084   1_455  S
C641        H642   1.112       .  S
C641        C646   1.528       .  S
C641        C645   1.532       .  S
C643        H644   1.111       .  S
C643        C649   1.543       .  S
C643        C648   1.545       .  S
C645        C648   1.390       .  D
C646        C672   1.495       .  S
C646        C649   1.391       .  D
C647        C663   1.494       .  S
C647        C650   1.390       .  D
C649        C681   1.495       .  S
C650        C690   1.489       .  S
C651        H652   1.111       .  S
C651        C657   1.538       .  S
C651        C656   1.535       .  S
C651        C655   1.538       .  S
C653        H654   1.112       .  S
C653        C659   1.534       .  S
C653        C658   1.536       .  S
C653        C660   1.535       .  S
C655        C665   1.495       .  S
C655        C658   1.392       .  D
C656       C2115   1.496   1_455  S
C656        C659   1.386       .  D
C657        C674   1.491       .  S
C657        C660   1.390       .  D
C658        C692   1.493       .  S
C659       C2124   1.486   1_455  S
C660        C683   1.503       .  S
C661        C662   1.407       .  A
C661        C666   1.405       .  A
C661        C718   1.465       .  S
C662        C663   1.400       .  A
C662        H667   1.084       .  S
C663        C664   1.399       .  A
C664        C665   1.399       .  A
C664        H668   1.075       .  S
C665        C666   1.404       .  A
C666        H669   1.083       .  S
C670        C671   1.409       .  A
C670        C675   1.410       .  A
C670        C709   1.481       .  S
C671        C672   1.407       .  A
C671        H676   1.084       .  S
C672        C673   1.397       .  A
C673        C674   1.396       .  A
C673        H677   1.076       .  S
C674        C675   1.399       .  A
C675        H678   1.083       .  S
C679        C680   1.409       .  A
C679        C684   1.413       .  A
C679        C698   1.480       .  S
C680        C681   1.399       .  A
C680        H685   1.083       .  S
C681        C682   1.399       .  A
C682        C683   1.400       .  A
C682        H686   1.075       .  S
C683        C684   1.408       .  A
C684        H687   1.084       .  S
C688        C689   1.413       .  A
C688        C693   1.409       .  A
C688        C702   1.486       .  S
C689        C690   1.407       .  A
C689        H694   1.082       .  S
C690        C691   1.397       .  A
C691        C692   1.395       .  A
C691        H695   1.077       .  S
C692        C693   1.402       .  A
C693        H696   1.083       .  S
C697        C698   1.350       .  D
C697        H699   1.087       .  S
C698        H700   1.087       .  S
C701       C2099   1.482       .  S
C701        C702   1.349       .  D
C701        H703   1.085       .  S
C702        H704   1.088       .  S
C705        C706   1.341       .  D
C705        H707   1.087       .  S
C706        H708   1.088       .  S
C709        C710   1.347       .  D
C709        H711   1.087       .  S
C710        H712   1.086       .  S
C713        H715   1.085       .  S
C714        H716   1.089       .  S
C717        C718   1.346       .  D
C717        H719   1.087       .  S
C718        H720   1.087       .  S
C721        C722   1.346       .  D
C721        H723   1.087       .  S
C722        H724   1.087       .  S
C725        C726   1.346       .  D
C725        H727   1.087       .  S
C726        H728   1.087       .  S
C729        C730   1.343       .  D
C729        H731   1.084       .  S
C730        H732   1.089       .  S
C733        C734   1.349       .  D
C733        H735   1.085       .  S
C734        H736   1.088       .  S
C737        C738   1.340       .  D
C737        H739   1.087       .  S
C738        H740   1.088       .  S
C741        C742   1.348       .  D
C741        H743   1.087       .  S
C742       C1844   1.473   1_455  S
C742        H744   1.087       .  S
C745        C746   1.409       .  A
C745        C750   1.412       .  A
C745        C989   1.479       .  S
C746        C747   1.398       .  A
C746        H751   1.084       .  S
C747        C748   1.399       .  A
C747        C772   1.493       .  S
C748        C749   1.400       .  A
C748        H752   1.076       .  S
C749        C750   1.408       .  A
C749        C761   1.502       .  S
C750        H753   1.083       .  S
C754        H755   1.111       .  S
C754        C760   1.544   1_545  S
C754        C759   1.538       .  S
C754        C758   1.541       .  S
C756        H757   1.112       .  S
C756        C762   1.538       .  S
C756        C761   1.535       .  S
C756        C763   1.535   1_545  S
C758        C812   1.494       .  S
C758        C761   1.389       .  D
C759        C796   1.508       .  S
C759        C762   1.391       .  D
C760       C1299   1.492       .  S
C760        C763   1.391       .  D
C762        C776   1.489       .  S
C763       C1281   1.499       .  S
C764        H765   1.112       .  S
C764        C770   1.534       .  S
C764        C769   1.531       .  S
C764        C768   1.534       .  S
C766        H767   1.112       .  S
C766        C772   1.537       .  S
C766        C771   1.533       .  S
C766        C773   1.543       .  S
C768        C805   1.494       .  S
C768        C771   1.391       .  D
C769        C814   1.491       .  S
C769        C772   1.386       .  D
C770        C794   1.496       .  S
C770        C773   1.394       .  D
C771        C787   1.492       .  S
C774        C775   1.402       .  A
C774        C779   1.409       .  A
C774        C985   1.469       .  S
C775        C776   1.399       .  A
C775        H780   1.084       .  S
C776        C777   1.402       .  A
C777        C778   1.400       .  A
C777        H781   1.077       .  S
C778        C779   1.402       .  A
C778       C1517   1.497       .  S
C779       H1526   1.083       .  S
C783        C784   1.406       .  A
C783        C788   1.414       .  A
C783        C982   1.482       .  S
C784        C785   1.400       .  A
C784       H1037   1.084       .  S
C785        C786   1.395       .  A
C785       C1011   1.492       .  S
C786        C787   1.397       .  A
C786        H790   1.077       .  S
C787        C788   1.408       .  A
C788        H791   1.082       .  S
H789       C1280   1.084       .  S
C792       C1537   1.410       .  A
C792        C797   1.423       .  A
C792        C978   1.495       .  S
C793        C794   1.400       .  A
C793        H798   1.083       .  S
C795       C1538   1.397       .  A
C795        C796   1.400       .  A
C795        H799   1.075       .  S
C796        C797   1.415       .  A
C797        H800   1.081       .  S
C801        C802   1.406       .  A
C801        C806   1.408       .  A
C801        C973   1.466       .  S
C802        C803   1.405       .  A
C802        H807   1.083       .  S
C803        C804   1.396       .  A
C803       C1008   1.495       .  S
C804        C805   1.397       .  A
C804        H808   1.075       .  S
C805        C806   1.402       .  A
C806        H809   1.084       .  S
C810        C811   1.410       .  A
C810        C815   1.405       .  A
C810        C969   1.473       .  S
C811        C812   1.398       .  A
C811        H816   1.084       .  S
C812        C813   1.400       .  A
C813        C814   1.401       .  A
C813        H817   1.077       .  S
C814        C815   1.403       .  A
C815        H818   1.084       .  S
O819       Ni825   1.940       .  S
O819        C840   1.273       .  A
O820       Ni843   1.874       .  S
O820        C829   1.261       .  A
O821      Ni1569   1.923       .  S
O821       Ni843   1.895       .  S
O821       Ni837   1.908       .  S
O821        H844   0.967       .  S
C822        C958   1.469       .  S
C822        O839   1.261       .  A
C822        O831   1.274       .  A
O823       Ni842   1.943       .  S
O823        C829   1.275       .  A
O824       Ni842   1.915       .  S
O824        C826   1.276       .  A
Ni825       O828   1.926       .  S
C826        C961   1.487       .  S
C826        O836   1.279       .  A
O827       Ni843   1.901       .  S
O827       C1577   1.264       .  A
O828        C833   1.276       .  A
C829        C974   1.474       .  S
O830      Ni1569   1.917       .  S
O830        C832   1.276       .  A
O831       Ni842   1.936       .  S
C832        C977   1.487       .  S
C832        O838   1.275       .  A
C833       C1218   1.470       .  S
H834        O835   0.966       .  S
O835       Ni843   1.913       .  S
O835       Ni837   1.895       .  S
O835       Ni842   1.923       .  S
O836       Ni837   1.954       .  S
Ni837       O841   1.872       .  S
Ni837       O839   1.898       .  S
O838       Ni843   1.947       .  S
C840        C965   1.471       .  S
O841       C1584   1.261       .  A
O845       Ni851   1.925   1_554  S
O845        C866   1.270       .  A
O846       Ni869   1.892       .  S
O846       C1103   1.265       .  A
O847       Ni851   1.919       .  S
O847       Ni869   1.902       .  S
O847       Ni863   1.922   1_556  S
O847        H870   0.966       .  S
C848        C981   1.478       .  S
C848        O865   1.266       .  A
C848        O857   1.274       .  A
O849      Ni1364   1.920       .  S
O849        C855   1.270       .  A
O850      Ni1364   1.910   1_544  S
O850       C1348   1.273   1_545  A
Ni851       O854   1.934       .  S
Ni851       O856   1.913       .  S
C852       C1982   1.474       .  S
C852       O1098   1.272       .  A
C852        O862   1.275       .  A
O853       Ni869   1.914       .  S
O853        C859   1.267       .  A
O854        C859   1.272       .  A
C855        C954   1.465   1_565  S
C855       O1342   1.266       .  A
O856        C858   1.274       .  A
O857       Ni868   1.934   1_554  S
C858        C945   1.473       .  S
C858        O864   1.276       .  A
C859       C1693   1.479       .  S
H860        O861   0.966       .  S
O861       Ni869   1.916       .  S
O861       Ni863   1.900   1_556  S
O861       Ni868   1.916       .  S
O862       Ni863   1.938       .  S
Ni863       O867   1.892       .  S
Ni863       O865   1.910       .  S
O864       Ni869   1.934       .  S
C866        C986   1.468       .  S
C866        O867   1.264       .  A
Ni868      O1097   1.930       .  S
Ni868      O1098   1.909   1_556  S
C871        C872   1.406       .  A
C871        C876   1.414       .  A
C871        C962   1.480       .  S
C872        C873   1.400       .  A
C872        H877   1.083       .  S
C873        C874   1.398       .  A
C873        C893   1.498       .  S
C874        C875   1.401       .  A
C874        H878   1.075       .  S
C875        C876   1.404       .  A
C875       C1648   1.497       .  S
C876        H879   1.081       .  S
C880        C881   1.407       .  A
C880        C885   1.398       .  A
C880        C953   1.463       .  S
C881        C882   1.403       .  A
C881        H886   1.083       .  S
C882        C883   1.400       .  A
C882        C896   1.496       .  S
C883        C884   1.402       .  A
C883        H887   1.077       .  S
C884        C885   1.395       .  A
C884       C1651   1.484       .  S
C885       H1632   1.084       .  S
C889        H890   1.112       .  S
C889       C1391   1.538   1_545  S
C889        C894   1.533       .  S
C889        C893   1.538       .  S
C891        H892   1.111       .  S
C891        C897   1.538       .  S
C891        C896   1.543       .  S
C891       C1394   1.533   1_545  S
C893        C896   1.394       .  D
C894        C920   1.492       .  S
C894        C897   1.389       .  D
C895        C911   1.483       .  S
C895       C1137   1.535       .  S
C895        C898   1.384       .  D
C897        C929   1.500       .  S
C898        C938   1.489       .  S
C898       C1139   1.529       .  S
C899        H900   1.112       .  S
C899        C905   1.534       .  S
C899        C904   1.526       .  S
C899        C903   1.538       .  S
C901        H902   1.112       .  S
C901        C907   1.535       .  S
C901        C906   1.538       .  S
C901        C908   1.536       .  S
C903        C913   1.493       .  S
C903        C906   1.392       .  D
C904        C907   1.387       .  D
C905        C922   1.479       .  S
C905        C908   1.386       .  D
C906        C940   1.496       .  S
C908        C931   1.501       .  S
C909        C910   1.401       .  A
C909        C914   1.406       .  A
C909        C966   1.464       .  S
C910        C911   1.396       .  A
C910        H915   1.084       .  S
C911        C912   1.400       .  A
C912        C913   1.398       .  A
C912        H916   1.077       .  S
C913        C914   1.405       .  A
C914        H917   1.083       .  S
C918        C919   1.411       .  A
C918        C923   1.398       .  A
C918        C957   1.471       .  S
C919        C920   1.407       .  A
C919        H924   1.083       .  S
C920        C921   1.398       .  A
C921        C922   1.398       .  A
C921        H925   1.078       .  S
C922        C923   1.392       .  A
C923        H926   1.085       .  S
C927        C928   1.409       .  A
C927        C932   1.410       .  A
C927        C946   1.475       .  S
C928        C929   1.400       .  A
C928        H933   1.084       .  S
C929        C930   1.401       .  A
C930        C931   1.402       .  A
C930        H934   1.075       .  S
C931        C932   1.405       .  A
C932        H935   1.084       .  S
C936        C937   1.410       .  A
C936        C941   1.409       .  A
C936        C950   1.481       .  S
C937        C938   1.405       .  A
C937        H942   1.082       .  S
C938        C939   1.400       .  A
C939        C940   1.398       .  A
C939        H943   1.078       .  S
C940        C941   1.401       .  A
C941        H944   1.084       .  S
C945        C946   1.348       .  D
C945        H947   1.087       .  S
C946        H948   1.087       .  S
C949        C950   1.349       .  D
C949        H951   1.085       .  S
C950        H952   1.088       .  S
C953        C954   1.339       .  D
C953        H955   1.087   1_545  S
C954        H956   1.088       .  S
C957        C958   1.340       .  D
C957        H959   1.088       .  S
C958        H960   1.086       .  S
C961       C1210   1.349       .  D
C961        H963   1.084       .  S
C962       C1457   1.342       .  D
C962        H964   1.089   1_545  S
C965        C966   1.343       .  D
C965        H967   1.087       .  S
C966        H968   1.087       .  S
C969        C970   1.344       .  D
C969        H971   1.087       .  S
C970       C1329   1.466   1_545  S
C970        H972   1.087       .  S
C973        C974   1.347       .  D
C973        H975   1.086       .  S
C974        H976   1.087       .  S
C977        C978   1.345       .  D
C977        H979   1.085       .  S
C978        H980   1.088       .  S
C981        C982   1.345       .  D
C981        H983   1.085       .  S
C982        H984   1.088       .  S
C985        C986   1.342       .  D
C985        H987   1.087       .  S
C986        H988   1.088       .  S
C989        C990   1.350       .  D
C989        H991   1.087   1_545  S
C990        H992   1.087       .  S
C993        C994   1.407       .  A
C993        C998   1.411       .  A
C993       C1237   1.477       .  S
C994        C995   1.398       .  A
C994        H999   1.083       .  S
C995        C996   1.397       .  A
C995       C1020   1.492       .  S
C996        C997   1.398       .  A
C996       H1000   1.075       .  S
C997        C998   1.408       .  A
C997       C1009   1.498       .  S
C998       H1001   1.083       .  S
C1002      H1003   1.111       .  S
C1002      C1008   1.537       .  S
C1002      C1007   1.536       .  S
C1002      C1006   1.537       .  S
C1004      H1005   1.112       .  S
C1004      C1010   1.533       .  S
C1004      C1009   1.534       .  S
C1004      C1011   1.535       .  S
C1006      C1060   1.493       .  S
C1006      C1009   1.390       .  D
C1007      C1044   1.492       .  S
C1007      C1010   1.387       .  D
C1008      C1011   1.393       .  D
C1010      C1024   1.489       .  S
C1012      H1013   1.112       .  S
C1012      C1018   1.534       .  S
C1012      C1017   1.533       .  S
C1012      C1016   1.535       .  S
C1014      H1015   1.112       .  S
C1014      C1020   1.536       .  S
C1014      C1019   1.528       .  S
C1014      C1021   1.541       .  S
C1016      C1053   1.483       .  S
C1016      C1019   1.384       .  D
C1017      C1062   1.494       .  S
C1017      C1020   1.389       .  D
C1018      C1042   1.497       .  S
C1018      C1021   1.391       .  D
C1019      C1035   1.490       .  S
C1022      C1023   1.402       .  A
C1022      C1027   1.409       .  A
C1022      C1233   1.470       .  S
C1023      C1024   1.399       .  A
C1023      H1028   1.084       .  S
C1024      C1025   1.401       .  A
C1025      C1026   1.399       .  A
C1025      H1029   1.076       .  S
C1026      C1027   1.403       .  A
C1026      C1765   1.498       .  S
C1027      H1774   1.083       .  S
C1031      C1032   1.408       .  A
C1031      C1036   1.411       .  A
C1031      C1230   1.481       .  S
C1032      C1033   1.400       .  A
C1032      H1285   1.084       .  S
C1033      C1034   1.397       .  A
C1033      C1259   1.495       .  S
C1034      C1035   1.400       .  A
C1034      H1038   1.077       .  S
C1035      C1036   1.405       .  A
C1036      H1039   1.082       .  S
C1040      C1785   1.407       .  A
C1040      C1045   1.412       .  A
C1040      C1226   1.478       .  S
C1041      C1042   1.400       .  A
C1041      H1046   1.083       .  S
C1043      C1786   1.397       .  A
C1043      C1044   1.399       .  A
C1043      H1047   1.075       .  S
C1044      C1045   1.402       .  A
C1045      H1048   1.082       .  S
C1049      C1050   1.403       .  A
C1049      C1054   1.400       .  A
C1049      C1221   1.460       .  S
C1050      C1051   1.402       .  A
C1050      H1055   1.083       .  S
C1051      C1052   1.399       .  A
C1051      C1256   1.491       .  S
C1052      C1053   1.400       .  A
C1052      H1056   1.077       .  S
C1053      C1054   1.396       .  A
C1054      H1057   1.084       .  S
C1058      C1059   1.411       .  A
C1058      C1063   1.407       .  A
C1058      C1217   1.479       .  S
C1059      C1060   1.400       .  A
C1059      H1064   1.083       .  S
C1060      C1061   1.397       .  A
C1061      C1062   1.398       .  A
C1061      H1065   1.076       .  S
C1062      C1063   1.405       .  A
C1063      H1066   1.084       .  S
O1067     Ni1073   1.943       .  S
O1067      C1088   1.274       .  A
O1068     Ni1091   1.882       .  S
O1068      C1077   1.263       .  A
O1069     Ni1817   1.906       .  S
O1069     Ni1091   1.895       .  S
O1069     Ni1085   1.904       .  S
O1069      H1092   0.966       .  S
C1070      C1206   1.469       .  S
C1070      O1087   1.275       .  A
C1070      O1079   1.275       .  A
O1071     Ni1090   1.937       .  S
O1071      C1077   1.271       .  A
O1072     Ni1090   1.907       .  S
O1072      C1074   1.270       .  A
Ni1073     O1076   1.927       .  S
C1074      C1209   1.464       .  S
C1074      O1084   1.266       .  A
O1075     Ni1091   1.912       .  S
O1075      C1825   1.275       .  A
O1076      C1081   1.277       .  A
C1077      C1222   1.467       .  S
O1078     Ni1817   1.903       .  S
O1078      C1080   1.269       .  A
O1079     Ni1090   1.921       .  S
C1080      C1225   1.465       .  S
C1080      O1086   1.267       .  A
C1081      C1466   1.470       .  S
H1082      O1083   0.966       .  S
O1083     Ni1091   1.906       .  S
O1083     Ni1085   1.898       .  S
O1083     Ni1090   1.912       .  S
O1084     Ni1085   1.914       .  S
Ni1085     O1089   1.890       .  S
Ni1085     O1087   1.910       .  S
O1086     Ni1091   1.917       .  S
C1088      C1213   1.470       .  S
O1089      C1832   1.265       .  A
O1093     Ni1099   1.925   1_554  S
O1093      C1114   1.270       .  A
O1094     Ni1117   1.890       .  S
O1094      C1351   1.264       .  A
O1095     Ni1099   1.922       .  S
O1095     Ni1117   1.904       .  S
O1095     Ni1111   1.923   1_556  S
O1095      H1118   0.966       .  S
C1096      C1229   1.478       .  S
C1096      O1113   1.268       .  A
C1096      O1105   1.272       .  A
O1097      C1103   1.272       .  A
Ni1099     O1102   1.929       .  S
Ni1099     O1104   1.913       .  S
C1100      C2230   1.478       .  S
C1100      O1346   1.273       .  A
C1100      O1110   1.275       .  A
O1101     Ni1117   1.919       .  S
O1101      C1107   1.268       .  A
O1102      C1107   1.272       .  A
C1103      C1202   1.470       .  S
O1104      C1106   1.273       .  A
O1105     Ni1116   1.928   1_554  S
C1106      C1193   1.474       .  S
C1106      O1112   1.274       .  A
C1107      C1941   1.483       .  S
H1108      O1109   0.966       .  S
O1109     Ni1117   1.919       .  S
O1109     Ni1111   1.903   1_556  S
O1109     Ni1116   1.919       .  S
O1110     Ni1111   1.937       .  S
Ni1111     O1115   1.892       .  S
Ni1111     O1113   1.914       .  S
O1112     Ni1117   1.932       .  S
C1114      C1234   1.468       .  S
C1114      O1115   1.265       .  A
Ni1116     O1345   1.929       .  S
Ni1116     O1346   1.913   1_556  S
C1119      C1120   1.415       .  A
C1119      C1124   1.421       .  A
C1119      C1210   1.499       .  S
C1120      C1121   1.407       .  A
C1120      H1125   1.083       .  S
C1121      C1122   1.396       .  A
C1121      C1141   1.509       .  S
C1122      C1123   1.399       .  A
C1122      H1126   1.075       .  S
C1123      C1124   1.411       .  A
C1123      C1896   1.504       .  S
C1124      H1127   1.081       .  S
C1128      C1129   1.410       .  A
C1128      C1133   1.401       .  A
C1128      C1201   1.469       .  S
C1129      C1130   1.406       .  A
C1129      H1134   1.083       .  S
C1130      C1131   1.398       .  A
C1130      C1144   1.498       .  S
C1131      C1132   1.401       .  A
C1131      H1135   1.077       .  S
C1132      C1133   1.398       .  A
C1132      C1899   1.484       .  S
C1133      H1880   1.084       .  S
C1137      H1138   1.111       .  S
C1137      C1142   1.540       .  S
C1137      C1141   1.537       .  S
C1139      H1140   1.111       .  S
C1139      C1145   1.541       .  S
C1139      C1144   1.546       .  S
C1141      C1144   1.397       .  D
C1142      C1168   1.497       .  S
C1142      C1145   1.387       .  D
C1143      C1159   1.488       .  S
C1143      C1385   1.536       .  S
C1143      C1146   1.382       .  D
C1145      C1177   1.501       .  S
C1146      C1186   1.484       .  S
C1146      C1387   1.533       .  S
C1147      H1148   1.112       .  S
C1147      C1153   1.542       .  S
C1147      C1152   1.534       .  S
C1147      C1151   1.540       .  S
C1149      H1150   1.111       .  S
C1149      C1155   1.542       .  S
C1149      C1154   1.543       .  S
C1149      C1156   1.548       .  S
C1151      C1161   1.497       .  S
C1151      C1154   1.394       .  D
C1152      C1155   1.387       .  D
C1153      C1170   1.501       .  S
C1153      C1156   1.391       .  D
C1154      C1188   1.507       .  S
C1156      C1179   1.510       .  S
C1157      C1158   1.401       .  A
C1157      C1162   1.406       .  A
C1157      C1214   1.464       .  S
C1158      C1159   1.396       .  A
C1158      H1163   1.084       .  S
C1159      C1160   1.402       .  A
C1160      C1161   1.401       .  A
C1160      H1164   1.077       .  S
C1161      C1162   1.405       .  A
C1162      H1165   1.083       .  S
C1166      C1167   1.406       .  A
C1166      C1171   1.411       .  A
C1166      C1205   1.475       .  S
C1167      C1168   1.401       .  A
C1167      H1172   1.084       .  S
C1168      C1169   1.403       .  A
C1169      C1170   1.403       .  A
C1169      H1173   1.076       .  S
C1170      C1171   1.400       .  A
C1171      H1174   1.083       .  S
C1175      C1176   1.408       .  A
C1175      C1180   1.413       .  A
C1175      C1194   1.477       .  S
C1176      C1177   1.396       .  A
C1176      H1181   1.084       .  S
C1177      C1178   1.404       .  A
C1178      C1179   1.405       .  A
C1178      H1182   1.075       .  S
C1179      C1180   1.407       .  A
C1180      H1183   1.083       .  S
C1184      C1185   1.396       .  A
C1184      C1189   1.417       .  A
C1184      C1198   1.472       .  S
C1185      C1186   1.394       .  A
C1185      H1190   1.084       .  S
C1186      C1187   1.403       .  A
C1187      C1188   1.401       .  A
C1187      H1191   1.077       .  S
C1188      C1189   1.409       .  A
C1189      H1192   1.083       .  S
C1193      C1194   1.350       .  D
C1193      H1195   1.087       .  S
C1194      H1196   1.087       .  S
C1197      C1198   1.335       .  D
C1197      H1199   1.088       .  S
C1198      H1200   1.087       .  S
C1201      C1202   1.342       .  D
C1201      H1203   1.087       .  S
C1202      H1204   1.088       .  S
C1205      C1206   1.344       .  D
C1205      H1207   1.087       .  S
C1206      H1208   1.087       .  S
C1209      C1458   1.341       .  D
C1209      H1211   1.085       .  S
C1210      H1212   1.088       .  S
C1213      C1214   1.343       .  D
C1213      H1215   1.087       .  S
C1214      H1216   1.087       .  S
C1217      C1218   1.346       .  D
C1217      H1219   1.087       .  S
C1218      H1220   1.086       .  S
C1221      C1222   1.342       .  D
C1221      H1223   1.087       .  S
C1222      H1224   1.088       .  S
C1225      C1226   1.343       .  D
C1225      H1227   1.084       .  S
C1226      H1228   1.089       .  S
C1229      C1230   1.347       .  D
C1229      H1231   1.085       .  S
C1230      H1232   1.088       .  S
C1233      C1234   1.341       .  D
C1233      H1235   1.087       .  S
C1234      H1236   1.088       .  S
C1237      C1238   1.350       .  D
C1237      H1239   1.087       .  S
C1238      H1240   1.087       .  S
C1241      C1242   1.410       .  A
C1241      C1246   1.405       .  A
C1241      C1485   1.473       .  S
C1242      C1243   1.399       .  A
C1242      H1247   1.084       .  S
C1243      C1244   1.400       .  A
C1243      C1268   1.497       .  S
C1244      C1245   1.401       .  A
C1244      H1248   1.076       .  S
C1245      C1246   1.403       .  A
C1245      C1257   1.495       .  S
C1246      H1249   1.084       .  S
C1250      H1251   1.112       .  S
C1250      C1256   1.538       .  S
C1250      C1255   1.536       .  S
C1250      C1254   1.537       .  S
C1252      H1253   1.112       .  S
C1252      C1258   1.533       .  S
C1252      C1257   1.534       .  S
C1252      C1259   1.537       .  S
C1254      C1308   1.492       .  S
C1254      C1257   1.388       .  D
C1255      C1292   1.494       .  S
C1255      C1258   1.386       .  D
C1256      C1259   1.392       .  D
C1258      C1272   1.488       .  S
C1260      H1261   1.112       .  S
C1260      C1266   1.534       .  S
C1260      C1265   1.531       .  S
C1260      C1264   1.534       .  S
C1262      H1263   1.111       .  S
C1262      C1268   1.540       .  S
C1262      C1267   1.536       .  S
C1262      C1269   1.548       .  S
C1264      C1301   1.486       .  S
C1264      C1267   1.385       .  D
C1265      C1310   1.492       .  S
C1265      C1268   1.388       .  D
C1266      C1290   1.500       .  S
C1266      C1269   1.393       .  D
C1267      C1283   1.495       .  S
C1270      C1271   1.401       .  A
C1270      C1275   1.409       .  A
C1270      C1481   1.467       .  S
C1271      C1272   1.398       .  A
C1271      H1276   1.084       .  S
C1272      C1273   1.402       .  A
C1273      C1274   1.399       .  A
C1273      H1277   1.077       .  S
C1274      C1275   1.403       .  A
C1274      C2013   1.497       .  S
C1275      H2022   1.084       .  S
C1279      C1280   1.409       .  A
C1279      C1284   1.413       .  A
C1279      C1478   1.484       .  S
C1280      C1281   1.401       .  A
C1281      C1282   1.400       .  A
C1282      C1283   1.402       .  A
C1282      H1286   1.078       .  S
C1283      C1284   1.406       .  A
C1284      H1287   1.082       .  S
C1288      C2033   1.405       .  A
C1288      C1293   1.413       .  A
C1288      C1474   1.476       .  S
C1289      C1290   1.401       .  A
C1289      H1294   1.083       .  S
C1291      C2034   1.398       .  A
C1291      C1292   1.400       .  A
C1291      H1295   1.076       .  S
C1292      C1293   1.405       .  A
C1293      H1296   1.083       .  S
C1297      C1298   1.405       .  A
C1297      C1302   1.403       .  A
C1297      C1469   1.463       .  S
C1298      C1299   1.402       .  A
C1298      H1303   1.084       .  S
C1299      C1300   1.400       .  A
C1300      C1301   1.401       .  A
C1300      H1304   1.077       .  S
C1301      C1302   1.397       .  A
C1302      H1305   1.084       .  S
C1306      C1307   1.410       .  A
C1306      C1311   1.407       .  A
C1306      C1465   1.477       .  S
C1307      C1308   1.400       .  A
C1307      H1312   1.083       .  S
C1308      C1309   1.397       .  A
C1309      C1310   1.398       .  A
C1309      H1313   1.077       .  S
C1310      C1311   1.404       .  A
C1311      H1314   1.084       .  S
O1315     Ni1321   1.941       .  S
O1315      C1336   1.273       .  A
O1316     Ni1339   1.879       .  S
O1316      C1325   1.262       .  A
O1317     Ni2065   1.909       .  S
O1317     Ni1339   1.896       .  S
O1317     Ni1333   1.906       .  S
O1317      H1340   0.966       .  S
C1318      C1454   1.470       .  S
C1318      O1335   1.274       .  A
C1318      O1327   1.276       .  A
O1319     Ni1338   1.942       .  S
O1319      C1325   1.274       .  A
O1320     Ni1338   1.909       .  S
O1320      C1322   1.271       .  A
Ni1321     O1324   1.920       .  S
C1322      C1457   1.466   1_565  S
C1322      O1332   1.267       .  A
O1323     Ni1339   1.920       .  S
O1323      C2073   1.276       .  A
O1324      C1329   1.275       .  A
C1325      C1470   1.468       .  S
O1326     Ni2065   1.909       .  S
O1326      C1328   1.270       .  A
O1327     Ni1338   1.928       .  S
C1328      C1473   1.465       .  S
C1328      O1334   1.265       .  A
H1330      O1331   0.966       .  S
O1331     Ni1339   1.907       .  S
O1331     Ni1333   1.897       .  S
O1331     Ni1338   1.910       .  S
O1332     Ni1333   1.915       .  S
Ni1333     O1337   1.888       .  S
Ni1333     O1335   1.907       .  S
O1334     Ni1339   1.914       .  S
C1336      C1461   1.473       .  S
O1337      C2080   1.264       .  A
O1341     Ni1347   1.928   1_554  S
O1341      C1362   1.271       .  A
O1342     Ni1365   1.890       .  S
O1343     Ni1347   1.919       .  S
O1343     Ni1365   1.901       .  S
O1343     Ni1359   1.921   1_556  S
O1343      H1366   0.966       .  S
C1344      C1477   1.479       .  S
C1344      O1361   1.267       .  A
C1344      O1353   1.271       .  A
O1345      C1351   1.271       .  A
Ni1347     O1350   1.932       .  S
Ni1347     O1352   1.910       .  S
C1348      C1734   1.477   1_565  S
C1348      O1358   1.278       .  A
O1349     Ni1365   1.922       .  S
O1349      C1355   1.270       .  A
O1350      C1355   1.273       .  A
C1351      C1450   1.469       .  S
O1352      C1354   1.273       .  A
O1353     Ni1364   1.930   1_554  S
C1354      C1441   1.472       .  S
C1354      O1360   1.274       .  A
C1355      C2189   1.485       .  S
H1356      O1357   0.966       .  S
O1357     Ni1365   1.925       .  S
O1357     Ni1359   1.897   1_556  S
O1357     Ni1364   1.918       .  S
O1358     Ni1359   1.944       .  S
Ni1359     O1363   1.887       .  S
Ni1359     O1361   1.917       .  S
O1360     Ni1365   1.934       .  S
C1362      C1482   1.468       .  S
C1362      O1363   1.265       .  A
C1367      C1368   1.405       .  A
C1367      C1372   1.412       .  A
C1367      C1458   1.476       .  S
C1368      C1369   1.400       .  A
C1368      H1373   1.083       .  S
C1369      C1370   1.397       .  A
C1369      C1389   1.497       .  S
C1370      C1371   1.400       .  A
C1370      H1374   1.076       .  S
C1371      C1372   1.403       .  A
C1371      C2144   1.493       .  S
C1372      H1375   1.082       .  S
C1376      C1377   1.408       .  A
C1376      C1381   1.399       .  A
C1376      C1449   1.466       .  S
C1377      C1378   1.406       .  A
C1377      H1382   1.083       .  S
C1378      C1379   1.397       .  A
C1378      C1392   1.496       .  S
C1379      C1380   1.400       .  A
C1379      H1383   1.077       .  S
C1380      C1381   1.397       .  A
C1380      C2147   1.481       .  S
C1381      H2128   1.084       .  S
C1385      H1386   1.111       .  S
C1385      C1390   1.534       .  S
C1385      C1389   1.539       .  S
C1387      H1388   1.112       .  S
C1387      C1393   1.540       .  S
C1387      C1392   1.539       .  S
C1389      C1392   1.395       .  D
C1390      C1416   1.494       .  S
C1390      C1393   1.386       .  D
C1391      C1407   1.493       .  S
C1391      C1394   1.384       .  D
C1393      C1425   1.498       .  S
C1394      C1434   1.488       .  S
C1395      H1396   1.111       .  S
C1395      C1401   1.540       .  S
C1395      C1400   1.536       .  S
C1395      C1399   1.537       .  S
C1397      H1398   1.112       .  S
C1397      C1403   1.538       .  S
C1397      C1402   1.543       .  S
C1397      C1404   1.537       .  S
C1399      C1409   1.501       .  S
C1399      C1402   1.392       .  D
C1400      C1403   1.389       .  D
C1401      C1418   1.493       .  S
C1401      C1404   1.390       .  D
C1402      C1436   1.493       .  S
C1404      C1427   1.503       .  S
C1405      C1406   1.404       .  A
C1405      C1410   1.408       .  A
C1405      C1462   1.468       .  S
C1406      C1407   1.398       .  A
C1406      H1411   1.084       .  S
C1407      C1408   1.403       .  A
C1408      C1409   1.402       .  A
C1408      H1412   1.077       .  S
C1409      C1410   1.406       .  A
C1410      H1413   1.083       .  S
C1414      C1415   1.407       .  A
C1414      C1419   1.410       .  A
C1414      C1453   1.476       .  S
C1415      C1416   1.404       .  A
C1415      H1420   1.084       .  S
C1416      C1417   1.399       .  A
C1417      C1418   1.399       .  A
C1417      H1421   1.076       .  S
C1418      C1419   1.400       .  A
C1419      H1422   1.083       .  S
C1423      C1424   1.408       .  A
C1423      C1428   1.411       .  A
C1423      C1442   1.477       .  S
C1424      C1425   1.397       .  A
C1424      H1429   1.084       .  S
C1425      C1426   1.402       .  A
C1426      C1427   1.403       .  A
C1426      H1430   1.076       .  S
C1427      C1428   1.407       .  A
C1428      H1431   1.084       .  S
C1432      C1433   1.408       .  A
C1432      C1437   1.406       .  A
C1432      C1446   1.476       .  S
C1433      C1434   1.402       .  A
C1433      H1438   1.082       .  S
C1434      C1435   1.401       .  A
C1435      C1436   1.399       .  A
C1435      H1439   1.078       .  S
C1436      C1437   1.398       .  A
C1437      H1440   1.084       .  S
C1441      C1442   1.349       .  D
C1441      H1443   1.087       .  S
C1442      H1444   1.087       .  S
C1445      C1446   1.346       .  D
C1445      H1447   1.085       .  S
C1446      H1448   1.088       .  S
C1449      C1450   1.342       .  D
C1449      H1451   1.087       .  S
C1450      H1452   1.088       .  S
C1453      C1454   1.345       .  D
C1453      H1455   1.087       .  S
C1454      H1456   1.087       .  S
C1457      H1459   1.084       .  S
C1458      H1460   1.089       .  S
C1461      C1462   1.345       .  D
C1461      H1463   1.087       .  S
C1462      H1464   1.087       .  S
C1465      C1466   1.346       .  D
C1465      H1467   1.087       .  S
C1466      H1468   1.086       .  S
C1469      C1470   1.344       .  D
C1469      H1471   1.087       .  S
C1470      H1472   1.087       .  S
C1473      C1474   1.341       .  D
C1473      H1475   1.085       .  S
C1474      H1476   1.089       .  S
C1477      C1478   1.348       .  D
C1477      H1479   1.084       .  S
C1478      H1480   1.088       .  S
C1481      C1482   1.341       .  D
C1481      H1483   1.087       .  S
C1482      H1484   1.088       .  S
C1485      C1486   1.342       .  D
C1485      H1487   1.087       .  S
C1486      H1488   1.088       .  S
C1489      C1490   1.413       .  A
C1489      C1494   1.411       .  A
C1489      C1733   1.481       .  S
C1490      C1491   1.404       .  A
C1490      H1495   1.083       .  S
C1491      C1492   1.400       .  A
C1491      C1516   1.503       .  S
C1492      C1493   1.400       .  A
C1492      H1496   1.075       .  S
C1493      C1494   1.406       .  A
C1493      C1505   1.502       .  S
C1494      H1497   1.084       .  S
C1498      H1499   1.111       .  S
C1498      C1504   1.545       .  S
C1498      C1503   1.538       .  S
C1498      C1502   1.539       .  S
C1500      H1501   1.112       .  S
C1500      C1506   1.535       .  S
C1500      C1505   1.539       .  S
C1500      C1507   1.537   1_545  S
C1502      C1556   1.498       .  S
C1502      C1505   1.392       .  D
C1503      C1540   1.505       .  S
C1503      C1506   1.391       .  D
C1504      C2043   1.494   1_545  S
C1504      C1507   1.392   1_545  D
C1506      C1520   1.489       .  S
C1507      C2025   1.504       .  S
C1508      H1509   1.111       .  S
C1508      C1514   1.536       .  S
C1508      C1513   1.538       .  S
C1508      C1512   1.540       .  S
C1510      H1511   1.111       .  S
C1510      C1516   1.541       .  S
C1510      C1515   1.538       .  S
C1510      C1517   1.548       .  S
C1512      C1549   1.497       .  S
C1512      C1515   1.390       .  D
C1513      C1558   1.500       .  S
C1513      C1516   1.392       .  D
C1514      C1538   1.505       .  S
C1514      C1517   1.394       .  D
C1515      C1531   1.502       .  S
C1518      C1519   1.405       .  A
C1518      C1523   1.411       .  A
C1518      C1729   1.473       .  S
C1519      C1520   1.401       .  A
C1519      H1524   1.084       .  S
C1520      C1521   1.398       .  A
C1521      C1522   1.396       .  A
C1521      H1525   1.076       .  S
C1522      C1523   1.409       .  A
C1527      C1528   1.402       .  A
C1527      C1532   1.415       .  A
C1527      C1726   1.479       .  S
C1528      C1529   1.395       .  A
C1528      H1781   1.084       .  S
C1529      C1530   1.402       .  A
C1529      C1755   1.494       .  S
C1530      C1531   1.404       .  A
C1530      H1534   1.078       .  S
C1531      C1532   1.409       .  A
C1532      H1535   1.083       .  S
H1533      C2024   1.084       .  S
C1536      C1541   1.423       .  A
C1536      C1722   1.497       .  S
C1537      C1538   1.402       .  A
C1537      H1542   1.083       .  S
C1539      C1540   1.398       .  A
C1539      H1543   1.076       .  S
C1540      C1541   1.414       .  A
C1541      H1544   1.081       .  S
C1545      C1546   1.406       .  A
C1545      C1550   1.408       .  A
C1545      C1717   1.467       .  S
C1546      C1547   1.405       .  A
C1546      H1551   1.083       .  S
C1547      C1548   1.399       .  A
C1547      C1752   1.497       .  S
C1548      C1549   1.399       .  A
C1548      H1552   1.075       .  S
C1549      C1550   1.400       .  A
C1550      H1553   1.084       .  S
C1554      C1555   1.413       .  A
C1554      C1559   1.411       .  A
C1554      C1713   1.486       .  S
C1555      C1556   1.403       .  A
C1555      H1560   1.083       .  S
C1556      C1557   1.398       .  A
C1557      C1558   1.399       .  A
C1557      H1561   1.076       .  S
C1558      C1559   1.407       .  A
C1559      H1562   1.084       .  S
O1563     Ni1569   1.946       .  S
O1563      C1584   1.276       .  A
O1564     Ni1587   1.874       .  S
O1564      C1573   1.261       .  A
O1565     Ni1587   1.895       .  S
O1565     Ni1581   1.907       .  S
O1565      H1588   0.966   1_655  S
C1566      C1702   1.470       .  S
C1566      O1583   1.262       .  A
C1566      O1575   1.275       .  A
O1567     Ni1586   1.944       .  S
O1567      C1573   1.275       .  A
O1568     Ni1586   1.913       .  S
O1568      C1570   1.276       .  A
Ni1569     O1572   1.942       .  S
C1570      C1705   1.480       .  S
C1570      O1580   1.276       .  A
O1571     Ni1587   1.899       .  S
O1572      C1577   1.276       .  A
C1573      C1718   1.472       .  S
O1574      C1576   1.276       .  A
O1575     Ni1586   1.939       .  S
C1576      C1721   1.483       .  S
C1576      O1582   1.276       .  A
C1577      C1962   1.475       .  S
H1578      O1579   0.967       .  S
O1579     Ni1587   1.911       .  S
O1579     Ni1581   1.896       .  S
O1579     Ni1586   1.921       .  S
O1580     Ni1581   1.945       .  S
Ni1581     O1585   1.873       .  S
Ni1581     O1583   1.898       .  S
O1582     Ni1587   1.947       .  S
C1584      C1709   1.470       .  S
O1589     Ni1595   1.956       .  S
O1589      C1610   1.278   1_556  A
O1590     Ni1613   1.891       .  S
O1590      C1847   1.265       .  A
O1591     Ni1595   1.918       .  S
O1591     Ni1613   1.897       .  S
O1591     Ni1607   1.901   1_556  S
O1591      H1614   0.973       .  S
C1592      C1725   1.475       .  S
C1592      O1609   1.261       .  A
C1592      O1601   1.273       .  A
O1593     Ni2108   1.933       .  S
O1593      C1599   1.272       .  A
O1594     Ni2108   1.914   1_544  S
O1594      C2092   1.274   1_545  A
Ni1595     O1598   1.952       .  S
Ni1595     O1600   1.930       .  S
C1596      O1842   1.275       .  A
C1596      O1606   1.279       .  A
O1597     Ni1613   1.916   1_455  S
O1597      C1603   1.273       .  A
O1598      C1603   1.280   1_655  A
C1599      C1698   1.472   1_565  S
C1599      O2086   1.264       .  A
O1600      C1602   1.277       .  A
O1601     Ni1612   1.937   1_554  S
C1602      C1689   1.471       .  S
C1602      O1608   1.262       .  A
H1604      O1605   0.966       .  S
O1605     Ni1613   1.934       .  S
O1605     Ni1607   1.901   1_556  S
O1605     Ni1612   1.914       .  S
O1606     Ni1607   1.944       .  S
Ni1607     O1611   1.885       .  S
Ni1607     O1609   1.903       .  S
O1608     Ni1613   1.909       .  S
C1610      C1730   1.480       .  S
C1610      O1611   1.262       .  A
Ni1612     O1841   1.930       .  S
Ni1612     O1842   1.908   1_556  S
C1615      C1616   1.409       .  A
C1615      C1620   1.421       .  A
C1615      C1706   1.489       .  S
C1616      C1617   1.400       .  A
C1616      H1621   1.083       .  S
C1617      C1618   1.398       .  A
C1617      C1637   1.505       .  S
C1618      C1619   1.401       .  A
C1618      H1622   1.075       .  S
C1619      C1620   1.411       .  A
C1620      H1623   1.081   1_655  S
C1624      C1625   1.408       .  A
C1624      C1629   1.402       .  A
C1624      C1697   1.469       .  S
C1625      C1626   1.405       .  A
C1625      H1630   1.083       .  S
C1626      C1627   1.396       .  A
C1626      C1640   1.496       .  S
C1627      C1628   1.399       .  A
C1627      H1631   1.077       .  S
C1628      C1629   1.399       .  A
C1633      H1634   1.111       .  S
C1633      C2135   1.545   1_545  S
C1633      C1638   1.540       .  S
C1633      C1637   1.541       .  S
C1635      H1636   1.110       .  S
C1635      C1641   1.536       .  S
C1635      C1640   1.540       .  S
C1635      C2138   1.515   1_545  S
C1637      C1640   1.394       .  D
C1638      C1664   1.502       .  S
C1638      C1641   1.389       .  D
C1639      C1655   1.490       .  S
C1639      C1881   1.536       .  S
C1639      C1642   1.389       .  D
C1641      C1673   1.490       .  S
C1642      C1682   1.497       .  S
C1642      C1883   1.533       .  S
C1643      H1644   1.111       .  S
C1643      C1649   1.539       .  S
C1643      C1648   1.534       .  S
C1643      C1647   1.536       .  S
C1645      H1646   1.111       .  S
C1645      C1651   1.535       .  S
C1645      C1650   1.543       .  S
C1645      C1652   1.541       .  S
C1647      C1657   1.498       .  S
C1647      C1650   1.394       .  D
C1648      C1651   1.385       .  D
C1649      C1666   1.496       .  S
C1649      C1652   1.393       .  D
C1650      C1684   1.499       .  S
C1652      C1675   1.512       .  S
C1653      C1654   1.405       .  A
C1653      C1658   1.406       .  A
C1653      C1710   1.465       .  S
C1654      C1655   1.397       .  A
C1654      H1659   1.084       .  S
C1655      C1656   1.398       .  A
C1656      C1657   1.397       .  A
C1656      H1660   1.075       .  S
C1657      C1658   1.407       .  A
C1658      H1661   1.083       .  S
C1662      C1663   1.413       .  A
C1662      C1667   1.402       .  A
C1662      C1701   1.475       .  S
C1663      C1664   1.407       .  A
C1663      H1668   1.083       .  S
C1664      C1665   1.403       .  A
C1665      C1666   1.404       .  A
C1665      H1669   1.078       .  S
C1666      C1667   1.396       .  A
C1667      H1670   1.084       .  S
C1671      C1672   1.396       .  A
C1671      C1676   1.422       .  A
C1671      C1690   1.474       .  S
C1672      C1673   1.391       .  A
C1672      H1677   1.083       .  S
C1673      C1674   1.396       .  A
C1674      C1675   1.397       .  A
C1674      H1678   1.072       .  S
C1675      C1676   1.416       .  A
C1676      H1679   1.082       .  S
C1680      C1681   1.414       .  A
C1680      C1685   1.408       .  A
C1680      C1694   1.484       .  S
C1681      C1682   1.408       .  A
C1681      H1686   1.082       .  S
C1682      C1683   1.400       .  A
C1683      C1684   1.398       .  A
C1683      H1687   1.077       .  S
C1684      C1685   1.401       .  A
C1685      H1688   1.083       .  S
C1689      C1690   1.327       .  D
C1689      H1691   1.087       .  S
C1690      H1692   1.088       .  S
C1693      C1694   1.348       .  D
C1693      H1695   1.084       .  S
C1694      H1696   1.088       .  S
C1697      C1698   1.343       .  D
C1697      H1699   1.087   1_545  S
C1698      H1700   1.088       .  S
C1701      C1702   1.341       .  D
C1701      H1703   1.088       .  S
C1702      H1704   1.085       .  S
C1705      C1954   1.345       .  D
C1705      H1707   1.084       .  S
C1706      C2201   1.342   1_545  D
C1706      H1708   1.088   1_545  S
C1709      C1710   1.347       .  D
C1709      H1711   1.087       .  S
C1710      H1712   1.087       .  S
C1713      C1714   1.349       .  D
C1713      H1715   1.087       .  S
C1714      C2073   1.480   1_545  S
C1714      H1716   1.087       .  S
C1717      C1718   1.347       .  D
C1717      H1719   1.087       .  S
C1718      H1720   1.087       .  S
C1721      C1722   1.346       .  D
C1721      H1723   1.084       .  S
C1722      H1724   1.088   1_655  S
C1725      C1726   1.342       .  D
C1725      H1727   1.085       .  S
C1726      H1728   1.088       .  S
C1729      C1730   1.349       .  D
C1729      H1731   1.086       .  S
C1730      H1732   1.087       .  S
C1733      C1734   1.348       .  D
C1733      H1735   1.087   1_545  S
C1734      H1736   1.087       .  S
C1737      C1738   1.408       .  A
C1737      C1742   1.411       .  A
C1737      C1981   1.479       .  S
C1738      C1739   1.398       .  A
C1738      H1743   1.084       .  S
C1739      C1740   1.400       .  A
C1739      C1764   1.494       .  S
C1740      C1741   1.401       .  A
C1740      H1744   1.076       .  S
C1741      C1742   1.408       .  A
C1741      C1753   1.503       .  S
C1742      H1745   1.083       .  S
C1746      H1747   1.111       .  S
C1746      C1752   1.540       .  S
C1746      C1751   1.534       .  S
C1746      C1750   1.541       .  S
C1748      H1749   1.112       .  S
C1748      C1754   1.539       .  S
C1748      C1753   1.537       .  S
C1748      C1755   1.541       .  S
C1750      C1804   1.490       .  S
C1750      C1753   1.388       .  D
C1751      C1788   1.498       .  S
C1751      C1754   1.385       .  D
C1752      C1755   1.391       .  D
C1754      C1768   1.489       .  S
C1756      H1757   1.111       .  S
C1756      C1762   1.537       .  S
C1756      C1761   1.534       .  S
C1756      C1760   1.541       .  S
C1758      H1759   1.111       .  S
C1758      C1764   1.541       .  S
C1758      C1763   1.534       .  S
C1758      C1765   1.543       .  S
C1760      C1797   1.490       .  S
C1760      C1763   1.385       .  D
C1761      C1806   1.501       .  S
C1761      C1764   1.389       .  D
C1762      C1786   1.497       .  S
C1762      C1765   1.394       .  D
C1763      C1779   1.495       .  S
C1766      C1767   1.400       .  A
C1766      C1771   1.407       .  A
C1766      C1977   1.463       .  S
C1767      C1768   1.397       .  A
C1767      H1772   1.084       .  S
C1768      C1769   1.405       .  A
C1769      C1770   1.402       .  A
C1769      H1773   1.077       .  S
C1770      C1771   1.402       .  A
C1775      C1776   1.411       .  A
C1775      C1780   1.412       .  A
C1775      C1974   1.486       .  S
C1776      C1777   1.402       .  A
C1776      H2029   1.084       .  S
C1777      C1778   1.399       .  A
C1777      C2003   1.500       .  S
C1778      C1779   1.401       .  A
C1778      H1782   1.077       .  S
C1779      C1780   1.405       .  A
C1780      H1783   1.082       .  S
C1784      C1789   1.415       .  A
C1784      C1970   1.484       .  S
C1785      C1786   1.400       .  A
C1785      H1790   1.084       .  S
C1787      C1788   1.400       .  A
C1787      H1791   1.075       .  S
C1788      C1789   1.405       .  A
C1789      H1792   1.082       .  S
C1793      C1794   1.404       .  A
C1793      C1798   1.402       .  A
C1793      C1965   1.464       .  S
C1794      C1795   1.401       .  A
C1794      H1799   1.084       .  S
C1795      C1796   1.403       .  A
C1795      C2000   1.493       .  S
C1796      C1797   1.404       .  A
C1796      H1800   1.078       .  S
C1797      C1798   1.397       .  A
C1798      H1801   1.084       .  S
C1802      C1803   1.401       .  A
C1802      C1807   1.415       .  A
C1802      C1961   1.478       .  S
C1803      C1804   1.394       .  A
C1803      H1808   1.084       .  S
C1804      C1805   1.401       .  A
C1805      C1806   1.402       .  A
C1805      H1809   1.078       .  S
C1806      C1807   1.411       .  A
C1807      H1810   1.083       .  S
O1811     Ni1817   1.942       .  S
O1811      C1832   1.273       .  A
O1812     Ni1835   1.884       .  S
O1812      C1821   1.263       .  A
O1813     Ni1835   1.896       .  S
O1813     Ni1829   1.907       .  S
O1813      H1836   0.966   1_655  S
C1814      C1950   1.474       .  S
C1814      O1831   1.274       .  A
C1814      O1823   1.277       .  A
O1815     Ni1834   1.940       .  S
O1815      C1821   1.272       .  A
O1816     Ni1834   1.905       .  S
O1816      C1818   1.269       .  A
Ni1817     O1820   1.931       .  S
C1818      C1953   1.463       .  S
C1818      O1828   1.265       .  A
O1819     Ni1835   1.909       .  S
O1820      C1825   1.278       .  A
C1821      C1966   1.468       .  S
O1822      C1824   1.271       .  A
O1823     Ni1834   1.929       .  S
C1824      C1969   1.470       .  S
C1824      O1830   1.268       .  A
C1825      C2210   1.476       .  S
H1826      O1827   0.966       .  S
O1827     Ni1835   1.905       .  S
O1827     Ni1829   1.898       .  S
O1827     Ni1834   1.912       .  S
O1828     Ni1829   1.913       .  S
Ni1829     O1833   1.882       .  S
Ni1829     O1831   1.910       .  S
O1830     Ni1835   1.919       .  S
C1832      C1957   1.472       .  S
O1837     Ni1843   1.922   1_554  S
O1837      C1858   1.270       .  A
O1838     Ni1861   1.884       .  S
O1838      C2095   1.263       .  A
O1839     Ni1843   1.920       .  S
O1839     Ni1861   1.897       .  S
O1839     Ni1855   1.925   1_556  S
O1839      H1862   0.965   1_655  S
C1840      C1973   1.481       .  S
C1840      O1857   1.270       .  A
C1840      O1849   1.272       .  A
O1841      C1847   1.272       .  A
Ni1843     O1846   1.933       .  S
Ni1843     O1848   1.912       .  S
C1844      O2090   1.272       .  A
C1844      O1854   1.275       .  A
O1845     Ni1861   1.916   1_455  S
O1845      C1851   1.267       .  A
O1846      C1851   1.271   1_655  A
C1847      C1946   1.473       .  S
O1848      C1850   1.274       .  A
O1849     Ni1860   1.930   1_554  S
C1850      C1937   1.477       .  S
C1850      O1856   1.277       .  A
H1852      O1853   0.966       .  S
O1853     Ni1861   1.919       .  S
O1853     Ni1855   1.902   1_556  S
O1853     Ni1860   1.918       .  S
O1854     Ni1855   1.937       .  S
Ni1855     O1859   1.889       .  S
Ni1855     O1857   1.919       .  S
O1856     Ni1861   1.940       .  S
C1858      C1978   1.466       .  S
C1858      O1859   1.265       .  A
Ni1860     O2089   1.927       .  S
Ni1860     O2090   1.908   1_556  S
C1863      C1864   1.411       .  A
C1863      C1868   1.419       .  A
C1863      C1954   1.493       .  S
C1864      C1865   1.405       .  A
C1864      H1869   1.083       .  S
C1865      C1866   1.396       .  A
C1865      C1885   1.504       .  S
C1866      C1867   1.398       .  A
C1866      H1870   1.075       .  S
C1867      C1868   1.409       .  A
C1868      H1871   1.081   1_655  S
C1872      C1873   1.410       .  A
C1872      C1877   1.401       .  A
C1872      C1945   1.469       .  S
C1873      C1874   1.406       .  A
C1873      H1878   1.083       .  S
C1874      C1875   1.394       .  A
C1874      C1888   1.493       .  S
C1875      C1876   1.397       .  A
C1875      H1879   1.076       .  S
C1876      C1877   1.399       .  A
C1881      H1882   1.111       .  S
C1881      C1886   1.538       .  S
C1881      C1885   1.531       .  S
C1883      H1884   1.111       .  S
C1883      C1889   1.537       .  S
C1883      C1888   1.544       .  S
C1885      C1888   1.396       .  D
C1886      C1912   1.499       .  S
C1886      C1889   1.390       .  D
C1887      C1903   1.491       .  S
C1887      C2129   1.538       .  S
C1887      C1890   1.386       .  D
C1889      C1921   1.500       .  S
C1890      C1930   1.494       .  S
C1890      C2131   1.533       .  S
C1891      H1892   1.111       .  S
C1891      C1897   1.542       .  S
C1891      C1896   1.537       .  S
C1891      C1895   1.544       .  S
C1893      H1894   1.112       .  S
C1893      C1899   1.534       .  S
C1893      C1898   1.536       .  S
C1893      C1900   1.535       .  S
C1895      C1905   1.496       .  S
C1895      C1898   1.392       .  D
C1896      C1899   1.388       .  D
C1897      C1914   1.495       .  S
C1897      C1900   1.390       .  D
C1898      C1932   1.499       .  S
C1900      C1923   1.501       .  S
C1901      C1902   1.404       .  A
C1901      C1906   1.407       .  A
C1901      C1958   1.469       .  S
C1902      C1903   1.398       .  A
C1902      H1907   1.084       .  S
C1903      C1904   1.402       .  A
C1904      C1905   1.401       .  A
C1904      H1908   1.077       .  S
C1905      C1906   1.404       .  A
C1906      H1909   1.083       .  S
C1910      C1911   1.410       .  A
C1910      C1915   1.411       .  A
C1910      C1949   1.483       .  S
C1911      C1912   1.406       .  A
C1911      H1916   1.084       .  S
C1912      C1913   1.400       .  A
C1913      C1914   1.400       .  A
C1913      H1917   1.076       .  S
C1914      C1915   1.400       .  A
C1915      H1918   1.083       .  S
C1919      C1920   1.411       .  A
C1919      C1924   1.410       .  A
C1919      C1938   1.479       .  S
C1920      C1921   1.403       .  A
C1920      H1925   1.084       .  S
C1921      C1922   1.399       .  A
C1922      C1923   1.399       .  A
C1922      H1926   1.075       .  S
C1923      C1924   1.406       .  A
C1924      H1927   1.084       .  S
C1928      C1929   1.413       .  A
C1928      C1933   1.410       .  A
C1928      C1942   1.486       .  S
C1929      C1930   1.408       .  A
C1929      H1934   1.082       .  S
C1930      C1931   1.400       .  A
C1931      C1932   1.398       .  A
C1931      H1935   1.077       .  S
C1932      C1933   1.401       .  A
C1933      H1936   1.084       .  S
C1937      C1938   1.349       .  D
C1937      H1939   1.087       .  S
C1938      H1940   1.087       .  S
C1941      C1942   1.350       .  D
C1941      H1943   1.084       .  S
C1942      H1944   1.088       .  S
C1945      C1946   1.344       .  D
C1945      H1947   1.087       .  S
C1946      H1948   1.087       .  S
C1949      C1950   1.348       .  D
C1949      H1951   1.087       .  S
C1950      H1952   1.086       .  S
C1953      C2202   1.340       .  D
C1953      H1955   1.084       .  S
C1954      H1956   1.088       .  S
C1957      C1958   1.344       .  D
C1957      H1959   1.087       .  S
C1958      H1960   1.087       .  S
C1961      C1962   1.341       .  D
C1961      H1963   1.088       .  S
C1962      H1964   1.086       .  S
C1965      C1966   1.343       .  D
C1965      H1967   1.087       .  S
C1966      H1968   1.087       .  S
C1969      C1970   1.344       .  D
C1969      H1971   1.084       .  S
C1970      H1972   1.088   1_655  S
C1973      C1974   1.350       .  D
C1973      H1975   1.084       .  S
C1974      H1976   1.088       .  S
C1977      C1978   1.340       .  D
C1977      H1979   1.087       .  S
C1978      H1980   1.088       .  S
C1981      C1982   1.349       .  D
C1981      H1983   1.087       .  S
C1982      H1984   1.087       .  S
C1985      C1986   1.410       .  A
C1985      C1990   1.413       .  A
C1985      C2229   1.482       .  S
C1986      C1987   1.401       .  A
C1986      H1991   1.084       .  S
C1987      C1988   1.398       .  A
C1987      C2012   1.495       .  S
C1988      C1989   1.399       .  A
C1988      H1992   1.076       .  S
C1989      C1990   1.409       .  A
C1989      C2001   1.502       .  S
C1990      H1993   1.083       .  S
C1994      H1995   1.111       .  S
C1994      C2000   1.547       .  S
C1994      C1999   1.541       .  S
C1994      C1998   1.543       .  S
C1996      H1997   1.112       .  S
C1996      C2002   1.536       .  S
C1996      C2001   1.534       .  S
C1996      C2003   1.534       .  S
C1998      C2052   1.496       .  S
C1998      C2001   1.390       .  D
C1999      C2036   1.510       .  S
C1999      C2002   1.388       .  D
C2000      C2003   1.391       .  D
C2002      C2016   1.484       .  S
C2004      H2005   1.112       .  S
C2004      C2010   1.536       .  S
C2004      C2009   1.535       .  S
C2004      C2008   1.539       .  S
C2006      H2007   1.111       .  S
C2006      C2012   1.538       .  S
C2006      C2011   1.535       .  S
C2006      C2013   1.542       .  S
C2008      C2045   1.496       .  S
C2008      C2011   1.390       .  D
C2009      C2054   1.501       .  S
C2009      C2012   1.391       .  D
C2010      C2034   1.495       .  S
C2010      C2013   1.392       .  D
C2011      C2027   1.498       .  S
C2014      C2015   1.401       .  A
C2014      C2019   1.409       .  A
C2014      C2225   1.469       .  S
C2015      C2016   1.398       .  A
C2015      H2020   1.084       .  S
C2016      C2017   1.401       .  A
C2017      C2018   1.398       .  A
C2017      H2021   1.077       .  S
C2018      C2019   1.404       .  A
C2023      C2024   1.412       .  A
C2023      C2028   1.414       .  A
C2023      C2222   1.487       .  S
C2024      C2025   1.403       .  A
C2025      C2026   1.399       .  A
C2026      C2027   1.401       .  A
C2026      H2030   1.077       .  S
C2027      C2028   1.407       .  A
C2028      H2031   1.082       .  S
C2032      C2037   1.424       .  A
C2032      C2218   1.495       .  S
C2033      C2034   1.399       .  A
C2033      H2038   1.084       .  S
C2035      C2036   1.401       .  A
C2035      H2039   1.075       .  S
C2036      C2037   1.413       .  A
C2037      H2040   1.081       .  S
C2041      C2042   1.404       .  A
C2041      C2046   1.408       .  A
C2041      C2213   1.464       .  S
C2042      C2043   1.403       .  A
C2042      H2047   1.084   1_565  S
C2043      C2044   1.400       .  A
C2044      C2045   1.399       .  A
C2044      H2048   1.075       .  S
C2045      C2046   1.400       .  A
C2046      H2049   1.084       .  S
C2050      C2051   1.412       .  A
C2050      C2055   1.412       .  A
C2050      C2209   1.485       .  S
C2051      C2052   1.401       .  A
C2051      H2056   1.083       .  S
C2052      C2053   1.399       .  A
C2053      C2054   1.399       .  A
C2053      H2057   1.076       .  S
C2054      C2055   1.408       .  A
C2055      H2058   1.084       .  S
O2059     Ni2065   1.943       .  S
O2059      C2080   1.273       .  A
O2060     Ni2083   1.873       .  S
O2060      C2069   1.260       .  A
O2061     Ni2083   1.895       .  S
O2061     Ni2077   1.911       .  S
O2061      H2084   0.966   1_655  S
C2062      C2198   1.471       .  S
C2062      O2079   1.263       .  A
C2062      O2071   1.275       .  A
O2063     Ni2082   1.942       .  S
O2063      C2069   1.274       .  A
O2064     Ni2082   1.914       .  S
O2064      C2066   1.275       .  A
Ni2065     O2068   1.930       .  S
C2066      C2201   1.481       .  S
C2066      O2076   1.274       .  A
O2067     Ni2083   1.896       .  S
O2068      C2073   1.278       .  A
C2069      C2214   1.470       .  S
O2070      C2072   1.277       .  A
O2071     Ni2082   1.936       .  S
C2072      C2217   1.482       .  S
C2072      O2078   1.275       .  A
H2074      O2075   0.966       .  S
O2075     Ni2083   1.907       .  S
O2075     Ni2077   1.897       .  S
O2075     Ni2082   1.920       .  S
O2076     Ni2077   1.941       .  S
Ni2077     O2081   1.874       .  S
Ni2077     O2079   1.900       .  S
O2078     Ni2083   1.943       .  S
C2080      C2205   1.473       .  S
O2085     Ni2091   1.927   1_554  S
O2085      C2106   1.271       .  A
O2086     Ni2109   1.890       .  S
O2087     Ni2091   1.921       .  S
O2087     Ni2109   1.904       .  S
O2087     Ni2103   1.925   1_556  S
O2087      H2110   0.966   1_655  S
C2088      C2221   1.483       .  S
C2088      O2105   1.269       .  A
C2088      O2097   1.273       .  A
O2089      C2095   1.271       .  A
Ni2091     O2094   1.932   1_655  S
Ni2091     O2096   1.912       .  S
C2092      O2102   1.274       .  A
O2093     Ni2109   1.917   1_455  S
O2093      C2099   1.268       .  A
O2094      C2099   1.272       .  A
C2095      C2194   1.466       .  S
O2096      C2098   1.273       .  A
O2097     Ni2108   1.933   1_554  S
C2098      C2185   1.475       .  S
C2098      O2104   1.274       .  A
H2100      O2101   0.966       .  S
O2101     Ni2109   1.921       .  S
O2101     Ni2103   1.902   1_556  S
O2101     Ni2108   1.920       .  S
O2102     Ni2103   1.930       .  S
Ni2103     O2107   1.891       .  S
Ni2103     O2105   1.918       .  S
O2104     Ni2109   1.931       .  S
C2106      C2226   1.469       .  S
C2106      O2107   1.264       .  A
C2111      C2112   1.405       .  A
C2111      C2116   1.414       .  A
C2111      C2202   1.476       .  S
C2112      C2113   1.398       .  A
C2112      H2117   1.084       .  S
C2113      C2114   1.398       .  A
C2113      C2133   1.498       .  S
C2114      C2115   1.400       .  A
C2114      H2118   1.075       .  S
C2115      C2116   1.404       .  A
C2116      H2119   1.082   1_655  S
C2120      C2121   1.408       .  A
C2120      C2125   1.401       .  A
C2120      C2193   1.465       .  S
C2121      C2122   1.402       .  A
C2121      H2126   1.083       .  S
C2122      C2123   1.399       .  A
C2122      C2136   1.498       .  S
C2123      C2124   1.402       .  A
C2123      H2127   1.077       .  S
C2124      C2125   1.398       .  A
C2129      H2130   1.112       .  S
C2129      C2134   1.531       .  S
C2129      C2133   1.537       .  S
C2131      H2132   1.111       .  S
C2131      C2137   1.540       .  S
C2131      C2136   1.545       .  S
C2133      C2136   1.393       .  D
C2134      C2160   1.496       .  S
C2134      C2137   1.390       .  D
C2135      C2151   1.484       .  S
C2135      C2138   1.385       .  D
C2137      C2169   1.497       .  S
C2138      C2178   1.491       .  S
C2139      H2140   1.112       .  S
C2139      C2145   1.542       .  S
C2139      C2144   1.530       .  S
C2139      C2143   1.535       .  S
C2141      H2142   1.112       .  S
C2141      C2147   1.533       .  S
C2141      C2146   1.538       .  S
C2141      C2148   1.534       .  S
C2143      C2153   1.498       .  S
C2143      C2146   1.393       .  D
C2144      C2147   1.385       .  D
C2145      C2162   1.487       .  S
C2145      C2148   1.389       .  D
C2146      C2180   1.490       .  S
C2148      C2171   1.506       .  S
C2149      C2150   1.401       .  A
C2149      C2154   1.407       .  A
C2149      C2206   1.467       .  S
C2150      C2151   1.395       .  A
C2150      H2155   1.084       .  S
C2151      C2152   1.401       .  A
C2152      C2153   1.400       .  A
C2152      H2156   1.078       .  S
C2153      C2154   1.407       .  A
C2154      H2157   1.083       .  S
C2158      C2159   1.412       .  A
C2158      C2163   1.401       .  A
C2158      C2197   1.472       .  S
C2159      C2160   1.408       .  A
C2159      H2164   1.083       .  S
C2160      C2161   1.400       .  A
C2161      C2162   1.399       .  A
C2161      H2165   1.077       .  S
C2162      C2163   1.394       .  A
C2163      H2166   1.084       .  S
C2167      C2168   1.409       .  A
C2167      C2172   1.413       .  A
C2167      C2186   1.480       .  S
C2168      C2169   1.399       .  A
C2168      H2173   1.083       .  S
C2169      C2170   1.399       .  A
C2170      C2171   1.400       .  A
C2170      H2174   1.075       .  S
C2171      C2172   1.409       .  A
C2172      H2175   1.083       .  S
C2176      C2177   1.414       .  A
C2176      C2181   1.409       .  A
C2176      C2190   1.488       .  S
C2177      C2178   1.411       .  A
C2177      H2182   1.082       .  S
C2178      C2179   1.395       .  A
C2179      C2180   1.392       .  A
C2179      H2183   1.077       .  S
C2180      C2181   1.401       .  A
C2181      H2184   1.083       .  S
C2185      C2186   1.350       .  D
C2185      H2187   1.087       .  S
C2186      H2188   1.087       .  S
C2189      C2190   1.350       .  D
C2189      H2191   1.085       .  S
C2190      H2192   1.088       .  S
C2193      C2194   1.341       .  D
C2193      H2195   1.087       .  S
C2194      H2196   1.088       .  S
C2197      C2198   1.341       .  D
C2197      H2199   1.088       .  S
C2198      H2200   1.086       .  S
C2201      H2203   1.084   1_565  S
C2202      H2204   1.089       .  S
C2205      C2206   1.343       .  D
C2205      H2207   1.087       .  S
C2206      H2208   1.087       .  S
C2209      C2210   1.349       .  D
C2209      H2211   1.087       .  S
C2210      H2212   1.086       .  S
C2213      C2214   1.346       .  D
C2213      H2215   1.087       .  S
C2214      H2216   1.087       .  S
C2217      C2218   1.343       .  D
C2217      H2219   1.084       .  S
C2218      H2220   1.088   1_655  S
C2221      C2222   1.350       .  D
C2221      H2223   1.085       .  S
C2222      H2224   1.088       .  S
C2225      C2226   1.342       .  D
C2225      H2227   1.087       .  S
C2226      H2228   1.088       .  S
C2229      C2230   1.351       .  D
C2229      H2231   1.087       .  S
C2230      H2232   1.087       .  S
