geometry optimzed in LAMMPS
_audit_creation_date              2020-11-30 
_audit_creation_method            'lammps2cif' 
_symmetry_space_group_name_H-M    'P1' 
_symmetry_Int_Tables_number       1 
_symmetry_cell_setting            triclinic 
loop_ 
_symmetry_equiv_pos_as_xyz 
  x,y,z 
_cell_length_a                    43.46847225 
_cell_length_b                    43.46213367007966 
_cell_length_c                    43.51556153374398 
_cell_angle_alpha                 89.96036074734454 
_cell_angle_beta                  90.0084451296322 
_cell_angle_gamma                 89.91016730707028 
loop_ 
_atom_site_label 
_atom_site_type_symbol 
_atom_site_fract_x 
_atom_site_fract_y 
_atom_site_fract_z 
_atom_site_charge 
O1          O  0.02573027  0.99984468  0.08100609    -0.72100
O2          O  0.02329945  0.50195099  0.16934939    -0.72300
O3          O  0.02383500  0.45940386  0.12476516    -0.72200
O4          O  0.02657083  0.04556947  0.12245772    -0.72200
O5          O  0.47342581  0.04447892  0.12540641    -0.72200
O6          O  0.47031882  0.45760157  0.12596003    -0.72200
O7          O  0.47086788  0.00081108  0.16898668    -0.72100
O8          O  0.47279538  0.50115914  0.08245188    -0.72300
V9          V  0.02269356  0.50292455  0.12567409     1.35200
V10         V  0.47254900  0.50116229  0.12597509     1.35200
C11         C  0.49806998  0.50161168  0.06808931     0.77100
C12         C  0.49469540  0.49926617  0.18502659     0.77200
C13         C  0.99894111  0.44442491  0.12493777     0.77100
C14         C  0.00198441  0.06107532  0.12258111     0.77000
O15         O  0.47060540  0.24980729  0.16765220    -0.72100
O16         O  0.47284691  0.25044410  0.08032218    -0.72300
O17         O  0.47185384  0.20677067  0.12375738    -0.72200
O18         O  0.47159398  0.29384138  0.12425215    -0.72200
O19         O  0.02684711  0.29611451  0.12548271    -0.72200
O20         O  0.02637640  0.20891116  0.12671326    -0.72200
O21         O  0.02717728  0.25199180  0.08253471    -0.72100
O22         O  0.02615119  0.25293789  0.16967318    -0.72300
V23         V  0.47266277  0.25025106  0.12402259     1.35200
V24         V  0.02568827  0.25253135  0.12609057     1.35200
C25         C  0.00098749  0.25143726  0.18411375     0.77100
C26         C  0.00249228  0.25251614  0.06718400     0.77200
C27         C  0.49673086  0.19185941  0.12573162     0.77100
C28         C  0.49655017  0.30873740  0.12373667     0.77000
O29         O  0.22428354  0.45383895  0.12820895    -0.72100
O30         O  0.22410443  0.04064737  0.12518872    -0.72300
O31         O  0.22390018  0.49576486  0.08320643    -0.72200
O32         O  0.22448808  0.99943498  0.17075128    -0.72200
O33         O  0.27310664  0.49624719  0.17071481    -0.72200
O34         O  0.27427247  0.99851323  0.08360411    -0.72200
O35         O  0.27391686  0.04102413  0.12817516    -0.72100
O36         O  0.27404147  0.45441518  0.12539271    -0.72300
V37         V  0.22445703  0.49744110  0.12672248     1.35200
V38         V  0.27346376  0.99752382  0.12723615     1.35200
C39         C  0.24933154  0.43912631  0.12637725     0.77100
C40         C  0.24888594  0.05575860  0.12655874     0.77200
C41         C  0.24934715  0.99695395  0.06864291     0.77100
C42         C  0.24944917  0.99819242  0.18553822     0.77000
O43         O  0.22600864  0.24859281  0.16590791    -0.72100
O44         O  0.22974215  0.24635628  0.07890864    -0.72300
O45         O  0.22751509  0.20394498  0.12363263    -0.72200
O46         O  0.22834196  0.29096295  0.12114376    -0.72200
O47         O  0.27818930  0.29068598  0.12233114    -0.72200
O48         O  0.27731499  0.20350721  0.12672032    -0.72200
O49         O  0.27958276  0.24511807  0.08077796    -0.72100
O50         O  0.27587476  0.24945302  0.16810010    -0.72300
V51         V  0.22889472  0.24744839  0.12242179     1.35200
V52         V  0.27681099  0.24712288  0.12442952     1.35200
C53         C  0.25024374  0.24960602  0.18189661     0.77100
C54         C  0.25520129  0.24571134  0.06487953     0.77200
C55         C  0.25224340  0.18880847  0.12596670     0.77100
C56         C  0.25335034  0.30578662  0.12124477     0.77000
O57         O  0.02673736  0.99652515  0.83065166    -0.72100
O58         O  0.02082858  0.49959959  0.91853909    -0.72300
O59         O  0.02108268  0.45410326  0.87685383    -0.72200
O60         O  0.02644149  0.04097261  0.87365037    -0.72200
O61         O  0.47659460  0.03913732  0.87650308    -0.72200
O62         O  0.47221497  0.45272592  0.87519980    -0.72200
O63         O  0.47564189  0.99446567  0.91884203    -0.72100
O64         O  0.47249235  0.49733611  0.83224422    -0.72300
V65         V  0.01973079  0.49756043  0.87502428     1.35200
V66         V  0.47335474  0.49641068  0.87588899     1.35200
C67         C  0.49750325  0.49593634  0.81749076     0.77100
C68         C  0.49704427  0.49738744  0.93461318     0.77200
C69         C  0.99624799  0.43906457  0.87626578     0.77100
C70         C  0.00167803  0.05629288  0.87465379     0.77000
O71         O  0.47641731  0.24681635  0.91680292    -0.72100
O72         O  0.47902757  0.24419974  0.82984826    -0.72300
O73         O  0.47893977  0.20195603  0.87463590    -0.72200
O74         O  0.47686857  0.28910735  0.87199334    -0.72200
O75         O  0.02563417  0.29268806  0.87397289    -0.72200
O76         O  0.02869129  0.20560494  0.87655774    -0.72200
O77         O  0.02796587  0.24830831  0.83163413    -0.72100
O78         O  0.02634988  0.25060653  0.91893698    -0.72300
V79         V  0.47879656  0.24552575  0.87333905     1.35200
V80         V  0.02620454  0.24920578  0.87529080     1.35200
C81         C  0.00117445  0.25034370  0.93355578     0.77100
C82         C  0.00319371  0.24716109  0.81646322     0.77200
C83         C  0.50421352  0.18749172  0.87461128     0.77100
C84         C  0.50145019  0.30457243  0.87343771     0.77000
O85         O  0.22979488  0.45804405  0.87526129    -0.72100
O86         O  0.22837513  0.04538339  0.87678926    -0.72300
O87         O  0.22900257  0.50297982  0.83309488    -0.72200
O88         O  0.22824505  0.00086100  0.91975791    -0.72200
O89         O  0.27848080  0.50112315  0.92051703    -0.72200
O90         O  0.27917059  0.00329998  0.83299354    -0.72200
O91         O  0.27828578  0.04561856  0.87768476    -0.72100
O92         O  0.27965766  0.45882699  0.87565049    -0.72300
V93         V  0.22981206  0.50161083  0.87660955     1.35200
V94         V  0.27767208  0.00207823  0.87664983     1.35200
C95         C  0.25500717  0.44348210  0.87484332     0.77100
C96         C  0.25324154  0.06040096  0.87745648     0.77200
C97         C  0.25435045  0.00345099  0.81782428     0.77100
C98         C  0.25303149  0.00026093  0.93500996     0.77000
O99         O  0.22811095  0.25141376  0.91671128    -0.72100
O100        O  0.22731961  0.25223743  0.82953048    -0.72300
O101        O  0.22715781  0.20836949  0.87286275    -0.72200
O102        O  0.22809131  0.29536573  0.87325609    -0.72200
O103        O  0.27793024  0.29498849  0.87189194    -0.72200
O104        O  0.27708228  0.20774492  0.87347202    -0.72200
O105        O  0.27727762  0.25042592  0.82918177    -0.72100
O106        O  0.27798340  0.25175019  0.91638727    -0.72300
V107        V  0.22864424  0.25187548  0.87310434     1.35200
V108        V  0.27662109  0.25131309  0.87275160     1.35200
C109        C  0.25315142  0.25088596  0.93150922     0.77100
C110        C  0.25219250  0.25099538  0.81455339     0.77200
C111        C  0.25193349  0.19317291  0.87323781     0.77100
C112        C  0.25304582  0.31014184  0.87210754     0.77000
O113        O  0.99695262  0.02387912  0.41720166    -0.72100
O114        O  0.49508697  0.02150877  0.33258355    -0.72300
O115        O  0.45346753  0.02084785  0.37804254    -0.72200
O116        O  0.04081823  0.02488747  0.37396055    -0.72200
O117        O  0.03924244  0.47657735  0.37638669    -0.72200
O118        O  0.45178721  0.47377730  0.37627229    -0.72200
O119        O  0.99731909  0.47589859  0.33145644    -0.72100
O120        O  0.49466514  0.47535668  0.42055098    -0.72300
V121        V  0.49695242  0.02068182  0.37620544     1.35200
V122        V  0.49527936  0.47504343  0.37690770     1.35200
C123        C  0.49643262  0.50070866  0.43473040     0.77100
C124        C  0.49422922  0.49751236  0.31773053     0.77200
C125        C  0.43903652  0.99563980  0.37861095     0.77100
C126        C  0.05601218  0.00018401  0.37182729     0.77000
O127        O  0.49862986  0.22486765  0.41714860    -0.72100
O128        O  0.99692220  0.22189215  0.33103254    -0.72300
O129        O  0.04154576  0.22389523  0.37321219    -0.72200
O130        O  0.45346912  0.22698718  0.37521738    -0.72200
O131        O  0.45434783  0.27683818  0.37535316    -0.72200
O132        O  0.03976794  0.27373493  0.37462365    -0.72200
O133        O  0.49746202  0.27687348  0.33098600    -0.72100
O134        O  0.99595277  0.27243651  0.41791399    -0.72300
V135        V  0.99806012  0.22319077  0.37470697     1.35200
V136        V  0.99633830  0.27112732  0.37440027     1.35200
C137        C  0.99811139  0.24774683  0.43313497     0.77100
C138        C  0.99766472  0.24691521  0.31621431     0.77200
C139        C  0.05554740  0.24937359  0.37315380     0.77100
C140        C  0.43893741  0.25213398  0.37562421     0.77000
O141        O  0.20175095  0.47611319  0.37553669    -0.72100
O142        O  0.28879179  0.47686390  0.37848996    -0.72300
O143        O  0.24410821  0.47727294  0.42064001    -0.72200
O144        O  0.24696715  0.47563327  0.33347509    -0.72200
O145        O  0.24777606  0.02298658  0.33219485    -0.72200
O146        O  0.24711087  0.02499092  0.41940456    -0.72200
O147        O  0.29104045  0.02418611  0.37639062    -0.72100
O148        O  0.20386329  0.02367909  0.37503210    -0.72300
V149        V  0.24531643  0.47743964  0.37702662     1.35200
V150        V  0.24743566  0.02302077  0.37580038     1.35200
C151        C  0.18915628  0.99862386  0.37385014     0.77100
C152        C  0.30603206  0.99933022  0.37825171     0.77200
C153        C  0.24516218  0.50241709  0.43521078     0.77100
C154        C  0.24629928  0.50026223  0.31802670     0.77000
O155        O  0.20428038  0.22612324  0.37239506    -0.72100
O156        O  0.29127581  0.22852068  0.37288815    -0.72300
O157        O  0.24757677  0.22639039  0.41618635    -0.72200
O158        O  0.24761206  0.22793941  0.32904644    -0.72200
O159        O  0.24895315  0.27792250  0.32976607    -0.72200
O160        O  0.24387911  0.27611431  0.41701831    -0.72200
O161        O  0.28980552  0.27826328  0.37593405    -0.72100
O162        O  0.20281227  0.27594582  0.37097048    -0.72300
V163        V  0.24769591  0.22820713  0.37262166     1.35200
V164        V  0.24636532  0.27613366  0.37339788     1.35200
C165        C  0.18860402  0.25058184  0.37141382     0.77100
C166        C  0.30549796  0.25381095  0.37501225     0.77200
C167        C  0.24532262  0.25092084  0.43159107     0.77100
C168        C  0.24858391  0.25312340  0.31458318     0.77000
O169        O  0.50009829  0.47584444  0.66975130    -0.72100
O170        O  0.00031236  0.47522677  0.58253150    -0.72300
O171        O  0.04355522  0.47702788  0.62650357    -0.72200
O172        O  0.45568142  0.47697935  0.62699788    -0.72200
O173        O  0.45669782  0.02546074  0.62458971    -0.72200
O174        O  0.04274297  0.02673025  0.62377951    -0.72200
O175        O  0.50176997  0.02426075  0.58251670    -0.72100
O176        O  0.99891502  0.02620674  0.66725888    -0.72300
V177        V  0.99998393  0.47643547  0.62603014     1.35200
V178        V  0.99924733  0.02407565  0.62358114     1.35200
C179        C  0.00034892  0.00159243  0.68273834     0.77100
C180        C  0.00032608  0.99836024  0.56565923     0.77200
C181        C  0.05757906  0.50250284  0.62666493     0.77100
C182        C  0.44091011  0.50206452  0.62720028     0.77000
O183        O  0.99885070  0.22788898  0.58163818    -0.72100
O184        O  0.49900396  0.22762693  0.66822222    -0.72300
O185        O  0.45576962  0.22673168  0.62437087    -0.72200
O186        O  0.04267919  0.22839731  0.62476675    -0.72200
O187        O  0.04205662  0.27832270  0.62504987    -0.72200
O188        O  0.45498280  0.27655534  0.62540629    -0.72200
O189        O  0.99912426  0.27757812  0.66905142    -0.72100
O190        O  0.49747931  0.27664154  0.58064357    -0.72300
V191        V  0.49931610  0.22821338  0.62463840     1.35200
V192        V  0.49864735  0.27614635  0.62426740     1.35200
C193        C  0.49845977  0.25161416  0.56584693     0.77100
C194        C  0.50001563  0.25263551  0.68302256     0.77200
C195        C  0.44037568  0.25139868  0.62497432     0.77100
C196        C  0.05722794  0.25352465  0.62495216     0.77000
O197        O  0.20617022  0.47892663  0.62871378    -0.72100
O198        O  0.29309095  0.48051584  0.62571188    -0.72300
O199        O  0.25132042  0.47937839  0.67082557    -0.72200
O200        O  0.24813655  0.48012175  0.58353002    -0.72200
O201        O  0.24984267  0.02950476  0.58315003    -0.72200
O202        O  0.25133483  0.02945776  0.67043516    -0.72200
O203        O  0.29408497  0.02984242  0.62624649    -0.72100
O204        O  0.20676997  0.02886649  0.62729520    -0.72300
V205        V  0.24964238  0.48070151  0.62718850     1.35200
V206        V  0.25048615  0.02847901  0.62678826     1.35200
C207        C  0.19220541  0.00366356  0.62712407     0.77100
C208        C  0.30914560  0.00494180  0.62644265     0.77200
C209        C  0.24993026  0.50422075  0.68587351     0.77100
C210        C  0.24802236  0.50519854  0.56871780     0.77000
O211        O  0.24791031  0.22650915  0.57990546    -0.72100
O212        O  0.24977938  0.22572981  0.66721026    -0.72300
O213        O  0.20516317  0.22530997  0.62432415    -0.72200
O214        O  0.29238265  0.22701987  0.62279232    -0.72200
O215        O  0.29127441  0.27683591  0.62452228    -0.72200
O216        O  0.20428351  0.27523168  0.62366892    -0.72200
O217        O  0.24724394  0.27564342  0.66747681    -0.72100
O218        O  0.24804521  0.27635551  0.58044650    -0.72300
V219        V  0.24877397  0.22706877  0.62356587     1.35200
V220        V  0.24775768  0.27502884  0.62398837     1.35200
C221        C  0.24785964  0.25162988  0.56517968     0.77100
C222        C  0.24853062  0.25062204  0.68219422     0.77200
C223        C  0.18985097  0.25004549  0.62400162     0.77100
C224        C  0.30680210  0.25226509  0.62373742     0.77000
C225        C  0.39028715  0.27918934  0.62288654    -0.26700
C226        C  0.40617060  0.25106759  0.62496090    -0.14700
C227        C  0.38907667  0.22343811  0.62706585     0.35900
C228        C  0.35681935  0.22469421  0.62676347    -0.26100
C229        C  0.34095850  0.25274360  0.62413321    -0.15300
C230        C  0.35800117  0.28040413  0.62228225     0.37000
N231        N  0.34269330  0.30966059  0.61973309    -0.89600
H232        H  0.40311601  0.30048285  0.62134059     0.18100
H233        H  0.34399079  0.20341149  0.62846364     0.18100
N234        N  0.40427884  0.19414758  0.62979023    -0.88600
H235        H  0.33219980  0.31048470  0.59814076     0.35500
H236        H  0.35859021  0.32770975  0.62018342     0.40600
H237        H  0.41447848  0.18934895  0.60857620     0.40200
H238        H  0.38833473  0.17655720  0.63362964     0.35100
C239        C  0.14079219  0.27497284  0.63828928    -0.26700
C240        C  0.15593285  0.25005421  0.62437597    -0.14700
C241        C  0.13830326  0.22650599  0.61054092     0.35900
C242        C  0.10626278  0.22850319  0.61084557    -0.26100
C243        C  0.09112673  0.25343118  0.62472804    -0.15300
C244        C  0.10874721  0.27688323  0.63874957     0.37000
N245        N  0.09494204  0.30232364  0.65451791    -0.89600
H246        H  0.15398581  0.29304149  0.64926388     0.18100
H247        H  0.09307460  0.21041837  0.59989442     0.18100
N248        N  0.15210918  0.20076004  0.59528374    -0.88600
H249        H  0.08015982  0.29377949  0.67138321     0.35500
H250        H  0.08234271  0.31544732  0.63876816     0.40600
H251        H  0.16455162  0.18789816  0.61135580     0.40200
H252        H  0.16705478  0.20893681  0.57834600     0.35100
C253        C  0.35707112  0.47748544  0.63149296    -0.26700
C254        C  0.34308549  0.00465786  0.62679321    -0.14700
C255        C  0.36058038  0.02974941  0.61597108     0.35900
C256        C  0.39276565  0.02782924  0.61651911    -0.26100
C257        C  0.40680558  0.50267141  0.62779080    -0.15300
C258        C  0.38925261  0.47572563  0.63245326     0.37000
N259        N  0.40396838  0.44668204  0.63850016    -0.89600
H260        H  0.34385487  0.45667794  0.63506901     0.18100
H261        H  0.40611258  0.04695816  0.60776575     0.18100
N262        N  0.34575822  0.05681372  0.60395486    -0.88600
H263        H  0.38771953  0.42905465  0.64035229     0.35500
H264        H  0.41460260  0.44832540  0.65998699     0.40600
H265        H  0.33428080  0.05046493  0.58382579     0.40200
H266        H  0.36202897  0.07334209  0.59760283     0.35100
C267        C  0.10780196  0.47624527  0.63377164    -0.26700
C268        C  0.09158802  0.50346057  0.62740375    -0.14700
C269        C  0.10958527  0.03132060  0.62096763     0.35900
C270        C  0.14190921  0.03063667  0.62172851    -0.26100
C271        C  0.15809027  0.00310846  0.62674810    -0.15300
C272        C  0.13998443  0.47568398  0.63424818     0.37000
N273        N  0.15548524  0.44726433  0.64057340    -0.89600
H274        H  0.09548635  0.45508050  0.63838901     0.18100
H275        H  0.15451745  0.05185096  0.61835839     0.18100
N276        N  0.09394941  0.06001702  0.61563723    -0.88600
H277        H  0.14868593  0.43118228  0.62402578     0.35500
H278        H  0.14822188  0.43934587  0.66204515     0.40600
H279        H  0.10961693  0.07747774  0.61078213     0.40200
H280        H  0.08319112  0.06629303  0.63628171     0.35100
C281        C  0.24843711  0.27840427  0.48161619    -0.26700
C282        C  0.24504119  0.25046934  0.46578615    -0.14700
C283        C  0.24242454  0.22286680  0.48288659     0.35900
C284        C  0.24369168  0.22395773  0.51516008    -0.26100
C285        C  0.24733480  0.25191169  0.53097589    -0.15300
C286        C  0.24995565  0.27948377  0.51383421     0.37000
N287        N  0.25450486  0.30852873  0.52897240    -0.89600
H288        H  0.25065039  0.29963472  0.46875637     0.18100
H289        H  0.24152835  0.20272786  0.52803415     0.18100
N290        N  0.23837239  0.19381057  0.46762664    -0.88600
H291        H  0.25468011  0.32657682  0.51308570     0.35500
H292        H  0.27641722  0.30806432  0.53890801     0.40600
H293        H  0.21674424  0.19415620  0.45714057     0.40200
H294        H  0.23794270  0.17574459  0.48352674     0.35100
C295        C  0.25629890  0.47848255  0.51879690    -0.26700
C296        C  0.24725513  0.50521524  0.53453227    -0.14700
C297        C  0.24045494  0.03032800  0.51657790     0.35900
C298        C  0.24013317  0.02846506  0.48431420    -0.26100
C299        C  0.24639678  0.50295181  0.46935866    -0.15300
C300        C  0.25643075  0.47717109  0.48652254     0.37000
N301        N  0.26739508  0.44995156  0.47123495    -0.89600
H302        H  0.26396670  0.45860206  0.53175086     0.18100
H303        H  0.23311664  0.04839771  0.47107472     0.18100
N304        N  0.23145470  0.05845110  0.53149306    -0.88600
H305        H  0.27353350  0.43303602  0.48717454     0.35500
H306        H  0.28757897  0.45586726  0.45953893     0.40600
H307        H  0.21092200  0.05415735  0.54325644     0.40200
H308        H  0.22652756  0.07554800  0.51530590     0.35100
C309        C  0.00548944  0.22449744  0.51740597    -0.26700
C310        C  0.99820826  0.25220465  0.53242248    -0.14700
C311        C  0.48827746  0.27690442  0.51439491     0.35900
C312        C  0.48936659  0.27575559  0.48218413    -0.26100
C313        C  0.99882148  0.24857830  0.46730594    -0.15300
C314        C  0.00608997  0.22238013  0.48519300     0.37000
N315        N  0.01431694  0.19375512  0.47078879    -0.89600
H316        H  0.01119163  0.20431342  0.53088459     0.18100
H317        H  0.48134571  0.29542889  0.46912464     0.18100
N318        N  0.47637033  0.30385407  0.52944932    -0.88600
H319        H  0.01795734  0.17658621  0.48724517     0.35500
H320        H  0.03540061  0.19703850  0.45970442     0.40600
H321        H  0.45589117  0.29756887  0.54038514     0.40200
H322        H  0.47055916  0.32081047  0.51340952     0.35100
C323        C  0.38909199  0.28076332  0.37610836    -0.26700
C324        C  0.40479122  0.25248453  0.37619595    -0.14700
C325        C  0.38753503  0.22495687  0.37648054     0.35900
C326        C  0.35541058  0.22621219  0.37661895    -0.26100
C327        C  0.33961594  0.25438625  0.37621154    -0.15300
C328        C  0.35675065  0.28209797  0.37621406     0.37000
N329        N  0.34150727  0.31148582  0.37590945    -0.89600
H330        H  0.40207333  0.30201773  0.37592210     0.18100
H331        H  0.34279945  0.20472354  0.37674114     0.18100
N332        N  0.40235296  0.19548238  0.37630588    -0.88600
H333        H  0.35746537  0.32934941  0.37397792     0.35500
H334        H  0.33085891  0.31429134  0.39727827     0.40600
H335        H  0.39491777  0.18345757  0.35685651     0.40200
H336        H  0.39522866  0.18332974  0.39576620     0.35100
C337        C  0.10582278  0.22268388  0.37534782    -0.26700
C338        C  0.08951798  0.25029075  0.37149230    -0.14700
C339        C  0.10592477  0.27786446  0.36621934     0.35900
C340        C  0.13820513  0.27726858  0.36642543    -0.26100
C341        C  0.15453326  0.24970899  0.37103667    -0.15300
C342        C  0.13801987  0.22198974  0.37523534     0.37000
N343        N  0.15377005  0.19320420  0.37971488    -0.89600
H344        H  0.09340291  0.20141748  0.37909130     0.18100
H345        H  0.15065689  0.29851442  0.36267521     0.18100
N346        N  0.08995801  0.30629532  0.36040590    -0.88600
H347        H  0.13816849  0.17492045  0.38057578     0.35500
H348        H  0.16433318  0.19403446  0.40127869     0.40600
H349        H  0.07863739  0.30404212  0.33931668     0.40200
H350        H  0.10549123  0.32444393  0.35780080     0.35100
C351        C  0.48507126  0.47673712  0.48522018    -0.26700
C352        C  0.49752507  0.50151196  0.46876034    -0.14700
C353        C  0.99674594  0.02648962  0.48329819     0.35900
C354        C  0.99726555  0.02557416  0.51546214    -0.26100
C355        C  0.00034678  0.99770822  0.53148395    -0.15300
C356        C  0.48472371  0.47651434  0.51746421     0.37000
N357        N  0.99189645  0.44286415  0.53138209    -0.89600
H358        H  0.47491797  0.45765820  0.47284890     0.18100
H359        H  0.99513132  0.04704946  0.52792139     0.18100
N360        N  0.52327092  0.04999622  0.46926758    -0.88600
H361        H  0.46272927  0.43470290  0.51823140     0.35500
H362        H  0.45130257  0.45988817  0.54505214     0.40600
H363        H  0.01196712  0.06963031  0.47512795     0.40200
H364        H  0.97320574  0.06590585  0.47574676     0.35100
C365        C  0.35273677  0.47428804  0.37017110    -0.26700
C366        C  0.34003068  0.99893033  0.37923366    -0.14700
C367        C  0.35769744  0.02438750  0.38917706     0.35900
C368        C  0.38976596  0.02237634  0.38917673    -0.26100
C369        C  0.40500833  0.99547860  0.37966233    -0.15300
C370        C  0.38476642  0.47233059  0.36999548     0.37000
N371        N  0.39827051  0.44353321  0.36130674    -0.89600
H372        H  0.33964154  0.45406512  0.36380660     0.18100
H373        H  0.40287048  0.04216590  0.39675766     0.18100
N374        N  0.34396280  0.05231559  0.40006290    -0.88600
H375        H  0.41109876  0.43497082  0.37975590     0.35500
H376        H  0.41258173  0.44703834  0.34233556     0.40600
H377        H  0.32893719  0.04703016  0.41806896     0.40200
H378        H  0.33170871  0.06258081  0.38212330     0.35100
C379        C  0.13933356  0.02670321  0.37401809    -0.26700
C380        C  0.15515427  0.99863218  0.37154589    -0.14700
C381        C  0.13574881  0.47578575  0.36379046     0.35900
C382        C  0.10353931  0.47645675  0.36457316    -0.26100
C383        C  0.09008164  0.00042306  0.37055352    -0.15300
C384        C  0.10716229  0.02789793  0.37338144     0.37000
N385        N  0.09211796  0.05714182  0.37585552    -0.89600
H386        H  0.15192625  0.04801242  0.37684142     0.18100
H387        H  0.09090541  0.45711525  0.35524255     0.18100
N388        N  0.15113112  0.44997455  0.35022871    -0.88600
H389        H  0.09967190  0.07103726  0.35772466     0.35500
H390        H  0.09898011  0.06739658  0.39645130     0.40600
H391        H  0.14360452  0.44791784  0.32749338     0.40200
H392        H  0.14446573  0.43015728  0.36209722     0.35100
C393        C  0.23347254  0.27214388  0.76529576    -0.26700
C394        C  0.25178061  0.25056596  0.78076417    -0.14700
C395        C  0.26874194  0.22869998  0.76371386     0.35900
C396        C  0.26668479  0.22859204  0.73164519    -0.26100
C397        C  0.24885382  0.25058694  0.71608499    -0.15300
C398        C  0.23212469  0.27267988  0.73306804     0.37000
N399        N  0.21363316  0.29535873  0.71758067    -0.89600
H400        H  0.22047787  0.28888429  0.77844461     0.18100
H401        H  0.27969352  0.21165507  0.71876649     0.18100
N402        N  0.28768771  0.20599600  0.77833836    -0.88600
H403        H  0.20319321  0.31013042  0.73342844     0.35500
H404        H  0.19587428  0.28378251  0.70625161     0.40600
H405        H  0.27418449  0.19357863  0.79384752     0.40200
H406        H  0.30512873  0.21720410  0.79049256     0.35100
C407        C  0.22861480  0.99244096  0.76806989    -0.26700
C408        C  0.25385094  0.50359513  0.78454505    -0.14700
C409        C  0.27176266  0.48269280  0.76735410     0.35900
C410        C  0.26960220  0.48287939  0.73511227    -0.26100
C411        C  0.25050469  0.50399652  0.71982111    -0.15300
C412        C  0.22744194  0.99200035  0.73583649     0.37000
N413        N  0.20090667  0.97998193  0.72019693    -0.89600
H414        H  0.20951108  0.98307044  0.78102043     0.14900
H415        H  0.28330174  0.46684792  0.72181093     0.18100
N416        N  0.29111309  0.46062029  0.78266765    -0.88600
H417        H  0.18423648  0.97294085  0.73601717     0.35500
H418        H  0.20775886  0.96021870  0.70834249     0.40600
H419        H  0.30915444  0.47267430  0.79298962     0.40200
H420        H  0.30126482  0.44576076  0.76672972     0.35100
C421        C  0.28139193  0.35982329  0.87405696    -0.26700
C422        C  0.25321267  0.34427615  0.87133852    -0.14700
C423        C  0.22577432  0.36165695  0.86849691     0.35900
C424        C  0.22714738  0.39386958  0.86988603    -0.26100
C425        C  0.25525325  0.40938428  0.87329633    -0.15300
C426        C  0.28268987  0.39202867  0.87499436     0.37000
N427        N  0.31196410  0.40681532  0.87800510    -0.89600
H428        H  0.30268626  0.34695441  0.87588299     0.18100
H429        H  0.20598045  0.40692872  0.86803056     0.18100
N430        N  0.19658088  0.34675173  0.86410102    -0.88600
H431        H  0.32570265  0.40012427  0.85944808     0.35500
H432        H  0.32236919  0.39885263  0.89817365     0.40600
H433        H  0.19696640  0.33647135  0.84241164     0.40200
H434        H  0.17866711  0.36287200  0.86362734     0.35100
C435        C  0.22706874  0.10978754  0.86554783    -0.26700
C436        C  0.25294615  0.09439630  0.87731394    -0.14700
C437        C  0.27830136  0.11165780  0.88796166     0.35900
C438        C  0.27747186  0.14383011  0.88589463    -0.26100
C439        C  0.25170533  0.15921848  0.87397534    -0.15300
C440        C  0.22621338  0.14200454  0.86355034     0.37000
N441        N  0.19983295  0.15713943  0.85046023    -0.89600
H442        H  0.20766871  0.09659753  0.85717775     0.18100
H443        H  0.29688952  0.15700549  0.89424899     0.18100
N444        N  0.30458692  0.09658836  0.90129974    -0.88600
H445        H  0.18298167  0.14112166  0.84436802     0.35500
H446        H  0.20691842  0.16770209  0.83005819     0.40600
H447        H  0.29731881  0.08602172  0.92163001     0.40200
H448        H  0.32135027  0.11264012  0.90755911     0.35100
C449        C  0.02035004  0.27018634  0.76714158    -0.26700
C450        C  0.00349090  0.24745012  0.78257756    -0.14700
C451        C  0.48802598  0.22509868  0.76463103     0.35900
C452        C  0.48687157  0.22762762  0.73250153    -0.26100
C453        C  0.00125507  0.25175678  0.71783396    -0.15300
C454        C  0.01915927  0.27284052  0.73491324     0.37000
N455        N  0.03681334  0.29618346  0.71955544    -0.89600
H456        H  0.03381954  0.28644166  0.78036806     0.18100
H457        H  0.47455823  0.21039034  0.71940238     0.18100
N458        N  0.47281173  0.20008969  0.78001285    -0.88600
H459        H  0.05037892  0.30825067  0.73531679     0.35500
H460        H  0.02135396  0.31218713  0.71043497     0.40600
H461        H  0.48974077  0.18658761  0.79053067     0.40200
H462        H  0.46160407  0.18594156  0.76415065     0.35100
C463        C  0.48186515  0.01792819  0.76883343    -0.26700
C464        C  0.50300881  0.99841273  0.78360106    -0.14700
C465        C  0.01533592  0.47663048  0.76594477     0.35900
C466        C  0.01519713  0.47814464  0.73374013    -0.26100
C467        C  0.00108684  0.00189676  0.71673680    -0.15300
C468        C  0.48071659  0.01992436  0.73663714     0.37000
N469        N  0.45860780  0.03959335  0.72180962    -0.89600
H470        H  0.46618099  0.03166159  0.78251443     0.18100
H471        H  0.02986560  0.46275848  0.72070097     0.18100
N472        N  0.03426747  0.45431476  0.78143775    -0.88600
H473        H  0.44547450  0.05139888  0.73813347     0.35500
H474        H  0.44336798  0.02553199  0.70965563     0.40600
H475        H  0.05186338  0.46622132  0.79262327     0.40200
H476        H  0.04514070  0.43991468  0.76553034     0.35100
C477        C  0.02181760  0.39030212  0.86192558    -0.26700
C478        C  0.99681135  0.40522203  0.87583518    -0.14700
C479        C  0.47085108  0.38586846  0.88035963     0.35900
C480        C  0.47261861  0.35368009  0.87930474    -0.26100
C481        C  0.50057587  0.33861301  0.87327843    -0.15300
C482        C  0.02302717  0.35813188  0.86001258     0.37000
N483        N  0.04816369  0.34333879  0.84437919    -0.89600
H484        H  0.04015292  0.40383061  0.85184119     0.18100
H485        H  0.45196746  0.34044363  0.88366867     0.18100
N486        N  0.44196166  0.40027548  0.88703317    -0.88600
H487        H  0.57224489  0.34887223  0.87587978     0.35500
H488        H  0.56262464  0.35017489  0.83821825     0.40600
H489        H  0.94657679  0.39416997  0.92624210     0.40200
H490        H  0.92710266  0.39555021  0.89260305     0.35100
C491        C  0.47683317  0.13784403  0.86871023    -0.26700
C492        C  0.50448224  0.15331637  0.87501890    -0.14700
C493        C  0.03210429  0.13798239  0.87390532     0.35900
C494        C  0.03039961  0.10585065  0.87349722    -0.26100
C495        C  0.00207212  0.09044675  0.87555732    -0.15300
C496        C  0.47496685  0.10562977  0.86938741     0.37000
N497        N  0.44617664  0.09081173  0.86266408    -0.89600
H498        H  0.45633160  0.15095876  0.86325373     0.18100
H499        H  0.05158566  0.09285226  0.87136197     0.18100
N500        N  0.06193578  0.15169923  0.87135015    -0.88600
H501        H  0.42969756  0.10690231  0.85565659     0.35500
H502        H  0.43794910  0.08145310  0.88321602     0.40600
H503        H  0.06614909  0.16487812  0.89101552     0.40200
H504        H  0.06238307  0.16575957  0.85189378     0.35100
C505        C  0.27109642  0.26824844  0.23175010    -0.26700
C506        C  0.24877274  0.25111728  0.21587616    -0.14700
C507        C  0.22600841  0.23513841  0.23273022     0.35900
C508        C  0.22667512  0.23599630  0.26500857    -0.26100
C509        C  0.24883722  0.25327645  0.28073138    -0.15300
C510        C  0.27120206  0.26970254  0.26404806     0.37000
N511        N  0.29430999  0.28715373  0.27997271    -0.89600
H512        H  0.28849637  0.28058526  0.21887661     0.18100
H513        H  0.20954730  0.22342509  0.27803669     0.18100
N514        N  0.20298279  0.21722670  0.21718866    -0.88600
H515        H  0.30904722  0.29789906  0.26432654     0.35500
H516        H  0.30777870  0.27166061  0.29255813     0.40600
H517        H  0.18796761  0.23259633  0.20636691     0.40200
H518        H  0.18962974  0.20503548  0.23303369     0.35100
C519        C  0.22887342  0.23840789  0.01474298    -0.26700
C520        C  0.25585306  0.24613394  0.03072433    -0.14700
C521        C  0.28211380  0.25526123  0.01385878     0.35900
C522        C  0.28074925  0.25612894  0.98154553    -0.26100
C523        C  0.25354988  0.24889989  0.96562256    -0.15300
C524        C  0.22736430  0.23963858  0.98254011     0.37000
N525        N  0.19932774  0.23128619  0.96711681    -0.89600
H526        H  0.20869935  0.23123179  0.02747232     0.18100
H527        H  0.30089806  0.26327278  0.96876093     0.18100
N528        N  0.30978304  0.26444246  0.02944986    -0.88600
H529        H  0.18203903  0.22603590  0.98298142     0.35500
H530        H  0.20362159  0.21107926  0.95481061     0.40600
H531        H  0.30488086  0.28470572  0.04145646     0.40200
H532        H  0.32703480  0.26995739  0.01365024     0.35100
C533        C  0.26257631  0.47561029  0.23568926    -0.26700
C534        C  0.24939788  0.99845602  0.21922283    -0.14700
C535        C  0.23483532  0.02222000  0.23567640     0.35900
C536        C  0.23511059  0.02144577  0.26792236    -0.26100
C537        C  0.24743644  0.49960390  0.28398668    -0.15300
C538        C  0.26224848  0.47552888  0.26793858     0.37000
N539        N  0.27748630  0.45124996  0.28424345    -0.89600
H540        H  0.27396237  0.45703950  0.22353976     0.18100
H541        H  0.22408032  0.03984751  0.28062053     0.18100
N542        N  0.22021393  0.04717259  0.21955776    -0.88600
H543        H  0.30059740  0.45105268  0.27758934     0.35500
H544        H  0.26765394  0.43037338  0.27750860     0.40600
H545        H  0.23729884  0.05914145  0.20760884     0.40200
H546        H  0.21048439  0.06275891  0.23507562     0.35100
C547        C  0.22440661  0.50135695  0.98446644    -0.26700
C548        C  0.25250468  0.99879917  0.96921950    -0.14700
C549        C  0.27954843  0.99426487  0.98679223     0.35900
C550        C  0.27772543  0.99396178  0.01903230    -0.26100
C551        C  0.24954081  0.99752251  0.03443133    -0.15300
C552        C  0.22231156  0.50141650  0.01664667     0.37000
N553        N  0.19276942  0.50482659  0.03114990    -0.89600
H554        H  0.20351999  0.50374070  0.97108960     0.18100
H555        H  0.29858459  0.99050527  0.03222425     0.18100
N556        N  0.30880406  0.98971210  0.97203678    -0.88600
H557        H  0.17518951  0.50555662  0.01477205     0.35500
H558        H  0.19255544  0.52620669  0.04217544     0.40600
H559        H  0.30794851  0.96852231  0.96071039     0.40200
H560        H  0.32644462  0.98791383  0.98828899     0.35100
C561        C  0.27831875  0.38987143  0.12100197    -0.26700
C562        C  0.24991912  0.40495413  0.12489031    -0.14700
C563        C  0.22272875  0.38715915  0.12641175     0.35900
C564        C  0.22466595  0.35504609  0.12414832    -0.26100
C565        C  0.25305585  0.33992903  0.12097596    -0.15300
C566        C  0.28023733  0.35765381  0.11889561     0.37000
N567        N  0.30967448  0.34308930  0.11470472    -0.89600
H568        H  0.29925141  0.40327152  0.11941974     0.18100
H569        H  0.20369881  0.34169486  0.12567760     0.18100
N570        N  0.19318063  0.40150846  0.13051554    -0.88600
H571        H  0.32735062  0.35940734  0.11468973     0.35500
H572        H  0.30972473  0.33304658  0.09289285     0.40600
H573        H  0.19263522  0.41056323  0.15275245     0.40200
H574        H  0.17551407  0.38522003  0.12947872     0.35100
C575        C  0.27551223  0.10511339  0.13679429    -0.26700
C576        C  0.24896472  0.08979603  0.12662732    -0.14700
C577        C  0.22324706  0.10721005  0.11696847     0.35900
C578        C  0.22480686  0.13944626  0.11761689    -0.26100
C579        C  0.25155331  0.15476660  0.12728206    -0.15300
C580        C  0.27704603  0.13733634  0.13749980     0.37000
N581        N  0.30425473  0.15226070  0.14890081    -0.89600
H582        H  0.29513530  0.09187693  0.14466738     0.18100
H583        H  0.20516611  0.15267896  0.10979064     0.18100
N584        N  0.19585776  0.09228103  0.10600164    -0.88600
H585        H  0.32104968  0.13605701  0.15487240     0.35500
H586        H  0.29825287  0.16364548  0.16918802     0.40600
H587        H  0.20145578  0.08111786  0.08545923     0.40200
H588        H  0.17887840  0.10845854  0.10057074     0.35100
C589        C  0.47401280  0.23477038  0.26616890    -0.26700
C590        C  0.99958227  0.24724709  0.28247334    -0.14700
C591        C  0.02071370  0.26658180  0.26716733     0.35900
C592        C  0.02120250  0.26706482  0.23493671    -0.26100
C593        C  0.00064228  0.24913431  0.21785598    -0.15300
C594        C  0.47319274  0.23397149  0.23390390     0.37000
N595        N  0.45115815  0.21492314  0.21830380    -0.89600
H596        H  0.45782239  0.22107988  0.27926302     0.18100
H597        H  0.03718577  0.28205890  0.22307612     0.18100
N598        N  0.04223104  0.28489388  0.28433891    -0.88600
H599        H  0.43685262  0.20380946  0.23411623     0.35500
H600        H  0.46336941  0.19767592  0.20682238     0.40600
H601        H  0.02989735  0.30256093  0.29500188     0.40200
H602        H  0.05781648  0.29569898  0.26956808     0.35100
C603        C  0.02893150  0.24892896  0.98359155    -0.26700
C604        C  0.00089221  0.25170376  0.96775130    -0.14700
C605        C  0.47287754  0.25681077  0.98290373     0.35900
C606        C  0.47294341  0.25665459  0.01522096    -0.26100
C607        C  0.00272787  0.25205706  0.03298617    -0.15300
C608        C  0.03021121  0.24876637  0.01584789     0.37000
N609        N  0.05936395  0.24495154  0.03102614    -0.89600
H610        H  0.05010345  0.24623439  0.97074149     0.18100
H611        H  0.45253846  0.26416577  0.02740641     0.18100
N612        N  0.44592523  0.26695497  0.96658656    -0.88600
H613        H  0.07733194  0.24433121  0.01508143     0.35500
H614        H  0.05916726  0.22339074  0.04172894     0.40600
H615        H  0.45154524  0.28744176  0.95531291     0.40200
H616        H  0.42813921  0.27229474  0.98187107     0.35100
C617        C  0.01593881  0.48152651  0.23370811    -0.26700
C618        C  0.49364651  0.49866084  0.21882381    -0.14700
C619        C  0.49608703  0.02674070  0.23571359     0.35900
C620        C  0.49594020  0.02520352  0.26784147    -0.26100
C621        C  0.49379901  0.49703337  0.28370229    -0.15300
C622        C  0.01576164  0.48033218  0.26595614     0.37000
N623        N  0.03471363  0.45835663  0.28161812    -0.89600
H624        H  0.02998046  0.46528748  0.22101332     0.18100
H625        H  0.49790058  0.04644954  0.28069696     0.18100
N626        N  0.49819327  0.05625442  0.22116888    -0.88600
H627        H  0.05754383  0.46209282  0.27503613     0.35500
H628        H  0.02838084  0.43637669  0.27423963     0.40600
H629        H  0.47887576  0.05918023  0.20710861     0.40200
H630        H  0.51775741  0.05644989  0.20722642     0.35100
C631        C  0.02692693  0.99382044  0.98228137    -0.26700
C632        C  0.49688450  0.49904615  0.96876646    -0.14700
C633        C  0.46963649  0.49510851  0.98601930     0.35900
C634        C  0.47068078  0.49636130  0.01817814    -0.26100
C635        C  0.49836517  0.50172168  0.03393954    -0.15300
C636        C  0.02823004  0.99392666  0.01452808     0.37000
N637        N  0.05728976  0.98954265  0.02972961    -0.89600
H638        H  0.04804322  0.99066940  0.96943977     0.18100
H639        H  0.44952969  0.49276344  0.03084868     0.18100
N640        N  0.44075924  0.48956199  0.97116909    -0.88600
H641        H  0.07519359  0.98800044  0.01377474     0.35500
H642        H  0.05643780  0.96825274  0.04092902     0.40600
H643        H  0.42546033  0.50697681  0.97770153     0.40200
H644        H  0.43210022  0.46862306  0.97918293     0.35100
C645        C  0.46835139  0.35844378  0.12703648    -0.26700
C646        C  0.49646228  0.34283261  0.12347701    -0.14700
C647        C  0.02891000  0.36270958  0.12897610     0.35900
C648        C  0.02738958  0.39490215  0.12869269    -0.26100
C649        C  0.99933058  0.41036348  0.12429753    -0.15300
C650        C  0.46697882  0.39069640  0.12805830     0.37000
N651        N  0.43783487  0.40582297  0.13227743    -0.89600
H652        H  0.44725978  0.34543334  0.12951954     0.18100
H653        H  0.04838870  0.40781001  0.13230657     0.18100
N654        N  0.05799906  0.34798410  0.13393509    -0.88600
H655        H  0.43814245  0.41613098  0.15398335     0.35500
H656        H  0.41989230  0.38983434  0.13267361     0.40600
H657        H  0.07310304  0.35522984  0.11669601     0.40200
H658        H  0.06668937  0.35544789  0.15505575     0.35100
C659        C  0.02894917  0.14438659  0.12118049    -0.26700
C660        C  0.49687208  0.15785706  0.12633315    -0.14700
C661        C  0.46985244  0.14074502  0.13207568     0.35900
C662        C  0.47122910  0.10855949  0.13176129    -0.26100
C663        C  0.00244684  0.09516188  0.12268194    -0.15300
C664        C  0.02995706  0.11217905  0.11926405     0.37000
N665        N  0.05877694  0.09693016  0.11353511    -0.89600
H666        H  0.05008578  0.15727746  0.11845407     0.18100
H667        H  0.45048051  0.09560490  0.13646092     0.18100
N668        N  0.44113268  0.15592792  0.13846756    -0.88600
H669        H  0.07681312  0.11278472  0.11265176     0.35500
H670        H  0.05743983  0.08701924  0.09167695     0.40600
H671        H  0.44340182  0.16706554  0.15962881     0.40200
H672        H  0.42337847  0.13993030  0.14109027     0.35100
O673        O  0.02401455  0.50374436  0.08203716    -0.72100
O674        O  0.02545899  0.00435763  0.16809771    -0.72300
O675        O  0.02469961  0.95859125  0.12687452    -0.72200
O676        O  0.02344319  0.54645723  0.12646621    -0.72200
O677        O  0.47298587  0.54469270  0.12586304    -0.72200
O678        O  0.47164670  0.95745216  0.12504448    -0.72200
O679        O  0.47025374  0.50135345  0.16948314    -0.72100
O680        O  0.47412523  0.00103089  0.08175050    -0.72300
V681        V  0.02466040  0.00211854  0.12455351     1.35200
V682        V  0.47348015  0.00096828  0.12537292     1.35200
C683        C  0.49958210  0.00031655  0.06767596     0.77100
C684        C  0.49532730  0.00006978  0.18465306     0.77200
C685        C  0.99943290  0.94422747  0.12679226     0.77100
C686        C  0.99850844  0.56138057  0.12519479     0.77000
O687        O  0.47237015  0.75066200  0.16616994    -0.72100
O688        O  0.47379811  0.75031681  0.07873887    -0.72300
O689        O  0.47287537  0.70719093  0.12288569    -0.72200
O690        O  0.47308848  0.79421770  0.12216929    -0.72200
O691        O  0.02419324  0.79578752  0.12678967    -0.72200
O692        O  0.02204557  0.70872120  0.12530523    -0.72200
O693        O  0.02259394  0.75283017  0.08234808    -0.72100
O694        O  0.02385001  0.75155348  0.16946751    -0.72300
V695        V  0.47396976  0.75063863  0.12248039     1.35200
V696        V  0.02219345  0.75225660  0.12593761     1.35200
C697        C  0.99910094  0.75063664  0.18462666     0.77100
C698        C  0.99759466  0.75379512  0.06751945     0.77200
C699        C  0.49762085  0.69208225  0.12482066     0.77100
C700        C  0.49809897  0.80900807  0.12184397     0.77000
O701        O  0.22518049  0.95349826  0.12965287    -0.72100
O702        O  0.22274947  0.54102179  0.12478026    -0.72300
O703        O  0.22453446  0.99504262  0.08368254    -0.72200
O704        O  0.22318736  0.49935202  0.17032274    -0.72200
O705        O  0.27443586  0.99645495  0.17081392    -0.72200
O706        O  0.27359999  0.49969965  0.08363721    -0.72200
O707        O  0.27251464  0.54163202  0.12855096    -0.72100
O708        O  0.27502101  0.95408713  0.12646953    -0.72300
V709        V  0.22550089  0.99710669  0.12727559     1.35200
V710        V  0.27238448  0.49800097  0.12712177     1.35200
C711        C  0.25037196  0.93892848  0.12869774     0.77100
C712        C  0.24743868  0.55626793  0.12607897     0.77200
C713        C  0.24884953  0.49796914  0.06847213     0.77100
C714        C  0.24806309  0.49805355  0.18532401     0.77000
O715        O  0.22560822  0.74853635  0.16724933    -0.72100
O716        O  0.22713386  0.74931594  0.08018051    -0.72300
O717        O  0.22538366  0.70493428  0.12315782    -0.72200
O718        O  0.22734991  0.79217227  0.12439651    -0.72200
O719        O  0.27728584  0.79100369  0.12565875    -0.72200
O720        O  0.27529637  0.70392237  0.12338538    -0.72200
O721        O  0.27702136  0.74880601  0.08085805    -0.72100
O722        O  0.27555804  0.74633011  0.16801727    -0.72300
V723        V  0.22733392  0.74863263  0.12371318     1.35200
V724        V  0.27532294  0.74748535  0.12443841     1.35200
C725        C  0.25036289  0.74779943  0.18244181     0.77100
C726        C  0.25229180  0.74979041  0.06559764     0.77200
C727        C  0.25007743  0.68949560  0.12331859     0.77100
C728        C  0.25263201  0.80642674  0.12553718     0.77000
O729        O  0.02066338  0.49554554  0.83157990    -0.72100
O730        O  0.02467238  0.99796777  0.91782907    -0.72300
O731        O  0.02482650  0.95366247  0.87498880    -0.72200
O732        O  0.02023510  0.54104930  0.87299282    -0.72200
O733        O  0.47270605  0.53999243  0.87651843    -0.72200
O734        O  0.47648215  0.95208763  0.87387451    -0.72200
O735        O  0.47225487  0.49592835  0.91948207    -0.72100
O736        O  0.47735456  0.99723303  0.83178498    -0.72300
V737        V  0.02474672  0.99729105  0.87423334     1.35200
V738        V  0.47748086  0.99565074  0.87530550     1.35200
C739        C  0.50260182  0.99670137  0.81742039     0.77100
C740        C  0.50022140  0.99559338  0.93432789     0.77200
C741        C  0.99964088  0.93922119  0.87319216     0.77100
C742        C  0.99516396  0.55581487  0.87373468     0.77000
O743        O  0.47670063  0.74801578  0.91431373    -0.72100
O744        O  0.48165596  0.74333733  0.82737824    -0.72300
O745        O  0.47866344  0.70236480  0.87295909    -0.72200
O746        O  0.47966507  0.78922253  0.86855929    -0.72200
O747        O  0.02414756  0.79044676  0.87706008    -0.72200
O748        O  0.02324322  0.70358968  0.87496865    -0.72200
O749        O  0.02548738  0.74825476  0.83251628    -0.72100
O750        O  0.02185396  0.74623357  0.91969628    -0.72300
V751        V  0.48011448  0.74574969  0.87084522     1.35200
V752        V  0.02270911  0.74706654  0.87606686     1.35200
C753        C  0.99645774  0.74841121  0.93376869     0.77100
C754        C  0.00111762  0.74709829  0.81673813     0.77200
C755        C  0.50345663  0.68718402  0.87302567     0.77100
C756        C  0.50458517  0.80396926  0.87104794     0.77000
O757        O  0.22909217  0.95823432  0.87528480    -0.72100
O758        O  0.22789634  0.54517118  0.87775399    -0.72300
O759        O  0.22925992  0.00261017  0.83251497    -0.72200
O760        O  0.22863753  0.50020340  0.92013400    -0.72200
O761        O  0.27808856  0.00095380  0.92026632    -0.72200
O762        O  0.27899033  0.50346921  0.83331779    -0.72200
O763        O  0.27786425  0.54607675  0.87837508    -0.72100
O764        O  0.27899364  0.95846418  0.87568308    -0.72300
V765        V  0.22971037  0.00179436  0.87610991     1.35200
V766        V  0.27779451  0.50241229  0.87695226     1.35200
C767        C  0.25413931  0.94341768  0.87529542     0.77100
C768        C  0.25256781  0.56047946  0.87848145     0.77200
C769        C  0.25404211  0.50332324  0.81838543     0.77100
C770        C  0.25347018  0.50007025  0.93528138     0.77000
O771        O  0.22565569  0.75134284  0.91713267    -0.72100
O772        O  0.22637918  0.75280042  0.82992198    -0.72300
O773        O  0.22572040  0.70828108  0.87290073    -0.72200
O774        O  0.22633257  0.79556554  0.87415468    -0.72200
O775        O  0.27621828  0.79511260  0.87263660    -0.72200
O776        O  0.27559871  0.70790043  0.87584105    -0.72200
O777        O  0.27626177  0.74990945  0.83050876    -0.72100
O778        O  0.27549671  0.75299244  0.91766809    -0.72300
V779        V  0.22696968  0.75196337  0.87355297     1.35200
V780        V  0.27493847  0.75150518  0.87410629     1.35200
C781        C  0.25041812  0.75213048  0.93236174     0.77100
C782        C  0.25148031  0.75120410  0.81535262     0.77200
C783        C  0.25056644  0.69320300  0.87463160     0.77100
C784        C  0.25137017  0.81027414  0.87316622     0.77000
O785        O  0.99457132  0.52592858  0.41854715    -0.72100
O786        O  0.49274465  0.52277214  0.33204912    -0.72300
O787        O  0.45131866  0.52361189  0.37759799    -0.72200
O788        O  0.03838668  0.52651460  0.37542716    -0.72200
O789        O  0.04132182  0.97510513  0.37095134    -0.72200
O790        O  0.45444624  0.97098619  0.37814951    -0.72200
O791        O  0.99575712  0.97547654  0.32941118    -0.72100
O792        O  0.49973138  0.97193842  0.42011284    -0.72300
V793        V  0.49485957  0.52297071  0.37560928     1.35200
V794        V  0.49795906  0.97273479  0.37639990     1.35200
C795        C  0.50008728  0.99702772  0.43486971     0.77100
C796        C  0.49491444  0.99655048  0.31762928     0.77200
C797        C  0.43660457  0.49853454  0.37714727     0.77100
C798        C  0.05369765  0.50176237  0.37622121     0.77000
O799        O  0.50152102  0.72342192  0.41579119    -0.72100
O800        O  0.00137282  0.72284423  0.33165514    -0.72300
O801        O  0.04545901  0.72412744  0.37485084    -0.72200
O802        O  0.45713577  0.72421747  0.37302428    -0.72200
O803        O  0.45757123  0.77405799  0.37202882    -0.72200
O804        O  0.04356065  0.77397292  0.37679464    -0.72200
O805        O  0.50165653  0.77397520  0.32897315    -0.72100
O806        O  0.99892580  0.77201151  0.41920719    -0.72300
V807        V  0.00199469  0.72338677  0.37538729     1.35200
V808        V  0.00006184  0.77132496  0.37572526     1.35200
C809        C  0.00084726  0.74711154  0.43408341     0.77100
C810        C  0.00153598  0.74806482  0.31710367     0.77200
C811        C  0.05940004  0.74958916  0.37573226     0.77100
C812        C  0.44239247  0.74924059  0.37240112     0.77000
O813        O  0.20426977  0.97379533  0.37476458    -0.72100
O814        O  0.29121217  0.97435628  0.37886642    -0.72300
O815        O  0.24607888  0.97511536  0.42046120    -0.72200
O816        O  0.24970237  0.97312322  0.33343469    -0.72200
O817        O  0.24451733  0.52550497  0.33241618    -0.72200
O818        O  0.24529486  0.52715414  0.41984709    -0.72200
O819        O  0.28838364  0.52667332  0.37587786    -0.72100
O820        O  0.20124119  0.52604202  0.37652102    -0.72300
V821        V  0.24776698  0.97506855  0.37689772     1.35200
V822        V  0.24482882  0.52540105  0.37615886     1.35200
C823        C  0.18659896  0.50095437  0.37576727     0.77100
C824        C  0.30350545  0.50189865  0.37753392     0.77200
C825        C  0.24694176  0.00034568  0.43488200     0.77100
C826        C  0.24899699  0.99768310  0.31791655     0.77000
O827        O  0.20770281  0.72537075  0.37380534    -0.72100
O828        O  0.29466225  0.72706799  0.37401003    -0.72300
O829        O  0.25107985  0.72684858  0.41734873    -0.72200
O830        O  0.25147777  0.72542811  0.33033817    -0.72200
O831        O  0.24843671  0.77528789  0.32929479    -0.72200
O832        O  0.25184560  0.77673293  0.41669566    -0.72200
O833        O  0.29375425  0.77686484  0.37135431    -0.72100
O834        O  0.20669223  0.77526249  0.37470544    -0.72300
V835        V  0.25119289  0.72716020  0.37382836     1.35200
V836        V  0.25020599  0.77511358  0.37300733     1.35200
C837        C  0.19230215  0.75001738  0.37480010     0.77100
C838        C  0.30915383  0.75221931  0.37267179     0.77200
C839        C  0.25152116  0.75193632  0.43198474     0.77100
C840        C  0.25000146  0.75002378  0.31494966     0.77000
O841        O  0.50156508  0.97669798  0.67090102    -0.72100
O842        O  0.00093232  0.97388025  0.58133198    -0.72300
O843        O  0.04476569  0.97692718  0.62472770    -0.72200
O844        O  0.45676958  0.97569255  0.62857280    -0.72200
O845        O  0.45604248  0.52685058  0.62670277    -0.72200
O846        O  0.04178291  0.52690140  0.62634408    -0.72200
O847        O  0.49957242  0.52665786  0.58281476    -0.72100
O848        O  0.99749412  0.52544085  0.66952764    -0.72300
V849        V  0.00108840  0.97615536  0.62490348     1.35200
V850        V  0.99832821  0.52439110  0.62582771     1.35200
C851        C  0.99804184  0.50037878  0.68432225     0.77100
C852        C  0.99908278  0.49994951  0.56732411     0.77200
C853        C  0.05873380  0.00246234  0.62440418     0.77100
C854        C  0.44184214  0.00066442  0.62689005     0.77000
O855        O  0.00400209  0.72674709  0.58225690    -0.72100
O856        O  0.50335619  0.72501232  0.66606587    -0.72300
O857        O  0.45941565  0.72733347  0.62265015    -0.72200
O858        O  0.04721367  0.72778894  0.62608244    -0.72200
O859        O  0.04605204  0.77764908  0.62418296    -0.72200
O860        O  0.46044580  0.77714364  0.62591656    -0.72200
O861        O  0.00411363  0.77682012  0.66932634    -0.72100
O862        O  0.50204012  0.77712373  0.58006903    -0.72300
V863        V  0.50311365  0.72727147  0.62263093     1.35200
V864        V  0.50405782  0.77520138  0.62380072     1.35200
C865        C  0.50218131  0.75243218  0.56461971     0.77100
C866        C  0.50585859  0.74937231  0.68164286     0.77200
C867        C  0.44498663  0.75259821  0.62411362     0.77100
C868        C  0.06154223  0.75305646  0.62502208     0.77000
O869        O  0.20755273  0.97898849  0.62695524    -0.72100
O870        O  0.29445259  0.97990435  0.62665413    -0.72300
O871        O  0.25120350  0.97943006  0.67036017    -0.72200
O872        O  0.25077145  0.97962265  0.58316018    -0.72200
O873        O  0.24875051  0.53001145  0.58386470    -0.72200
O874        O  0.24828763  0.52926634  0.67116994    -0.72200
O875        O  0.29230464  0.53034738  0.62780897    -0.72100
O876        O  0.20505583  0.52879012  0.62734081    -0.72300
V877        V  0.25100218  0.98047955  0.62677320     1.35200
V878        V  0.24865566  0.52865862  0.62753341     1.35200
C879        C  0.19068339  0.50353617  0.62829039     0.77100
C880        C  0.30765027  0.50563636  0.62662391     0.77200
C881        C  0.25153985  0.00440757  0.68517779     0.77100
C882        C  0.24996185  0.00457830  0.56818902     0.77000
O883        O  0.25298172  0.72915570  0.58019452    -0.72100
O884        O  0.25467768  0.72860121  0.66747332    -0.72300
O885        O  0.21022519  0.72763127  0.62451889    -0.72200
O886        O  0.29740570  0.73007600  0.62287988    -0.72200
O887        O  0.29611431  0.77990008  0.62594419    -0.72200
O888        O  0.20885774  0.77748063  0.62242157    -0.72200
O889        O  0.25038246  0.77839033  0.66777621    -0.72100
O890        O  0.25417805  0.77903806  0.58050987    -0.72300
V891        V  0.25380851  0.72981997  0.62380631     1.35200
V892        V  0.25244099  0.77776360  0.62414784     1.35200
C893        C  0.25376409  0.75419883  0.56538173     0.77100
C894        C  0.25206801  0.75336405  0.68251768     0.77200
C895        C  0.19462033  0.75214050  0.62325438     0.77100
C896        C  0.31170058  0.75534026  0.62446410     0.77000
C897        C  0.39534670  0.77828130  0.63730174    -0.26700
C898        C  0.41088677  0.75351951  0.62347082    -0.14700
C899        C  0.39365681  0.73017841  0.60890354     0.35900
C900        C  0.36139287  0.73136028  0.60978154    -0.26100
C901        C  0.34580253  0.75573239  0.62415351    -0.15300
C902        C  0.36299070  0.77963878  0.63787234     0.37000
N903        N  0.34766078  0.80485132  0.65283543    -0.89600
H904        H  0.40849978  0.79636245  0.64826918     0.18100
H905        H  0.34830091  0.71332813  0.59865747     0.18100
N906        N  0.40890392  0.70568818  0.59269364    -0.88600
H907        H  0.36365423  0.82064235  0.66134630     0.35500
H908        H  0.33600593  0.79596300  0.67188838     0.40600
H909        H  0.42053894  0.71550956  0.57406282     0.40200
H910        H  0.39290100  0.69037629  0.58341700     0.35100
C911        C  0.14495937  0.77725348  0.63534704    -0.26700
C912        C  0.16058705  0.75163628  0.62338377    -0.14700
C913        C  0.14328333  0.72665837  0.61169060     0.35900
C914        C  0.11115363  0.72787996  0.61241834    -0.26100
C915        C  0.09555080  0.75349855  0.62445358    -0.15300
C916        C  0.11286711  0.77848415  0.63607130     0.37000
N917        N  0.09873667  0.80502699  0.64958740    -0.89600
H918        H  0.15781003  0.79647752  0.64463156     0.18100
H919        H  0.09826987  0.70864856  0.60319451     0.18100
N920        N  0.15746723  0.70014425  0.59817946    -0.88600
H921        H  0.08424419  0.79785823  0.66738896     0.35500
H922        H  0.08583941  0.81645583  0.63284808     0.40600
H923        H  0.17039862  0.68875160  0.61495463     0.40200
H924        H  0.17198155  0.70735590  0.58044907     0.35100
C925        C  0.35818918  0.97847074  0.63827476    -0.26700
C926        C  0.34175900  0.50557267  0.62670155    -0.14700
C927        C  0.35926275  0.53265008  0.62258543     0.35900
C928        C  0.39152115  0.53085710  0.62327311    -0.26100
C929        C  0.40788345  0.00140732  0.62750288    -0.15300
C930        C  0.39037732  0.97669124  0.63913484     0.37000
N931        N  0.40519612  0.95016034  0.65227471    -0.89600
H932        H  0.34479394  0.95943134  0.64715532     0.18100
H933        H  0.40478453  0.55164950  0.61978728     0.18100
N934        N  0.34443853  0.56180851  0.61744079    -0.88600
H935        H  0.38890911  0.93392048  0.65932284     0.35500
H936        H  0.41661631  0.95736915  0.67213743     0.40600
H937        H  0.33360345  0.56074323  0.59599568     0.40200
H938        H  0.36064394  0.57948012  0.61595954     0.35100
C939        C  0.10919185  0.97612280  0.62995903    -0.26700
C940        C  0.09289593  0.00362349  0.62508141    -0.14700
C941        C  0.10820600  0.53075896  0.62166638     0.35900
C942        C  0.14041678  0.53029756  0.62254233    -0.26100
C943        C  0.15663714  0.50297460  0.62856589    -0.15300
C944        C  0.14137358  0.97559232  0.63093347     0.37000
N945        N  0.15681301  0.94696629  0.63646044    -0.89600
H946        H  0.09692507  0.95469109  0.63328158     0.18100
H947        H  0.15274507  0.55144952  0.61790300     0.18100
N948        N  0.09265687  0.55888938  0.61424514    -0.88600
H949        H  0.15036545  0.93150349  0.61923064     0.35500
H950        H  0.14919248  0.93824898  0.65752231     0.40600
H951        H  0.10023283  0.56616186  0.59261949     0.40200
H952        H  0.09910544  0.57551683  0.63034331     0.35100
C953        C  0.26178986  0.77880298  0.48154542    -0.26700
C954        C  0.25177434  0.75225851  0.46612314    -0.14700
C955        C  0.24245018  0.72640570  0.48354896     0.35900
C956        C  0.24377069  0.72761791  0.51577666    -0.26100
C957        C  0.25375149  0.75414886  0.53122774    -0.15300
C958        C  0.26312495  0.77999152  0.51382888     0.37000
N959        N  0.27442309  0.80718139  0.52884626    -0.89600
H960        H  0.26918062  0.79859609  0.46833648     0.18100
H961        H  0.23633517  0.70780666  0.52893496     0.18100
N962        N  0.23115910  0.69915370  0.46861116    -0.88600
H963        H  0.27982352  0.82420497  0.51275917     0.35500
H964        H  0.29505445  0.80132203  0.53977849     0.40600
H965        H  0.21044632  0.70492775  0.45780883     0.40200
H966        H  0.22592021  0.68208478  0.48471483     0.35100
C967        C  0.25752539  0.97710062  0.51864742    -0.26700
C968        C  0.24923673  0.00427402  0.53404273    -0.14700
C969        C  0.23787792  0.53126267  0.51736150     0.35900
C970        C  0.23765924  0.52982300  0.48504416    -0.26100
C971        C  0.24807317  0.00115159  0.46897897    -0.15300
C972        C  0.25740112  0.97530761  0.48642700     0.37000
N973        N  0.26731026  0.94748966  0.47149725    -0.89600
H974        H  0.26468878  0.95717609  0.53181779     0.18100
H975        H  0.23010416  0.54971126  0.47203565     0.18100
N976        N  0.22816595  0.55894435  0.53264723    -0.88600
H977        H  0.27283879  0.93056085  0.48765668     0.35500
H978        H  0.28767499  0.95247524  0.45969851     0.40600
H979        H  0.20779247  0.55395045  0.54443767     0.40200
H980        H  0.22274453  0.57608981  0.51669151     0.35100
C981        C  0.01214092  0.72452391  0.51791247    -0.26700
C982        C  0.00111806  0.75082868  0.53314197    -0.14700
C983        C  0.50211294  0.77945926  0.51258493     0.35900
C984        C  0.50238611  0.77734327  0.48032973    -0.26100
C985        C  0.00098773  0.74752526  0.46816672    -0.15300
C986        C  0.01238584  0.72261967  0.48569615     0.37000
N987        N  0.02468551  0.69571502  0.47087750    -0.89600
H988        H  0.02120050  0.70547268  0.53121291     0.18100
H989        H  0.50267225  0.79837346  0.46696360     0.18100
N990        N  0.50235209  0.80918287  0.52707547    -0.88600
H991        H  0.03144214  0.67930653  0.48712278     0.35500
H992        H  0.04465505  0.70234557  0.45923746     0.40600
H993        H  0.48094059  0.81224787  0.53760025     0.40200
H994        H  0.50428657  0.82668036  0.51069471     0.35100
C995        C  0.39290298  0.77796688  0.37422255    -0.26700
C996        C  0.40828269  0.74958218  0.37215184    -0.14700
C997        C  0.39080341  0.72219413  0.37028795     0.35900
C998        C  0.35863523  0.72395990  0.37061970    -0.26100
C999        C  0.34324093  0.75230109  0.37269492    -0.15300
C1000       C  0.36065387  0.77967538  0.37485616     0.37000
N1001       N  0.34576558  0.80907220  0.37805385    -0.89600
H1002       H  0.40609223  0.79902799  0.37587361     0.18100
H1003       H  0.34550655  0.70285879  0.36896534     0.18100
N1004       N  0.40553635  0.69261867  0.36802572    -0.88600
H1005       H  0.36193040  0.82685324  0.37823357     0.35500
H1006       H  0.33512153  0.80943407  0.39960785     0.40600
H1007       H  0.41596415  0.69140529  0.34642608     0.40200
H1008       H  0.38931737  0.67486054  0.36868412     0.35100
C1009       C  0.10952245  0.72353052  0.38347944    -0.26700
C1010       C  0.09337918  0.75041882  0.37563264    -0.14700
C1011       C  0.10992096  0.77723470  0.36774099     0.35900
C1012       C  0.14217277  0.77653752  0.36818508    -0.26100
C1013       C  0.15831557  0.74957209  0.37579324    -0.15300
C1014       C  0.14175125  0.72280155  0.38385369     0.37000
N1015       N  0.15754320  0.69507962  0.39274213    -0.89600
H1016       H  0.09693025  0.70297969  0.38979378     0.18100
H1017       H  0.15476953  0.79707714  0.36185307     0.18100
N1018       N  0.09408513  0.80487826  0.35870771    -0.88600
H1019       H  0.14190469  0.67736629  0.39717280     0.35500
H1020       H  0.16882058  0.69951720  0.41349263     0.40600
H1021       H  0.08294106  0.80036112  0.33790053     0.40200
H1022       H  0.10970485  0.82262051  0.35432238     0.35100
C1023       C  0.49182447  0.97132708  0.48544144    -0.26700
C1024       C  0.50150794  0.99736734  0.46898654    -0.14700
C1025       C  0.99929428  0.52893736  0.48497864     0.35900
C1026       C  0.99999360  0.52769143  0.51723599    -0.26100
C1027       C  0.99792604  0.49964798  0.53313322    -0.15300
C1028       C  0.49107052  0.97117556  0.51776516     0.37000
N1029       N  0.00735650  0.94119323  0.52974911    -0.89600
H1030       H  0.48400081  0.95121100  0.47301338     0.18100
H1031       H  0.00260679  0.54889957  0.53003013     0.18100
N1032       N  0.52468264  0.55156557  0.46877040    -0.88600
H1033       H  0.47458420  0.92684511  0.51837646     0.35500
H1034       H  0.45939652  0.95056739  0.54464232     0.40600
H1035       H  0.02356757  0.55820794  0.45849438     0.40200
H1036       H  0.00304757  0.57612638  0.48564046     0.35100
C1037       C  0.35524720  0.97183438  0.37036246    -0.26700
C1038       C  0.33752090  0.50170960  0.37794828    -0.14700
C1039       C  0.35522626  0.52775334  0.38619909     0.35900
C1040       C  0.38728736  0.52583763  0.38596609    -0.26100
C1041       C  0.40253751  0.49852524  0.37775525    -0.15300
C1042       C  0.38727768  0.96974338  0.37053525     0.37000
N1043       N  0.40087350  0.94138188  0.36064919    -0.89600
H1044       H  0.34215050  0.95203058  0.36280121     0.18100
H1045       H  0.40036456  0.54604576  0.39239780     0.18100
N1046       N  0.34157169  0.55628039  0.39552290    -0.88600
H1047       H  0.41349454  0.93197282  0.37886523     0.35500
H1048       H  0.41545900  0.94578131  0.34210992     0.40600
H1049       H  0.32684698  0.55212969  0.41407777     0.40200
H1050       H  0.32905788  0.56539289  0.37715818     0.35100
C1051       C  0.13671975  0.52634053  0.38747646    -0.26700
C1052       C  0.15261170  0.50085093  0.37555357    -0.14700
C1053       C  0.13814198  0.97136050  0.36691232     0.35900
C1054       C  0.10592317  0.97248832  0.36669576    -0.26100
C1055       C  0.08765946  0.50195614  0.37645872    -0.15300
C1056       C  0.10449137  0.52706546  0.38811641     0.37000
N1057       N  0.08903926  0.55301975  0.40131398    -0.89600
H1058       H  0.14934462  0.54568718  0.39679980     0.18100
H1059       H  0.09330691  0.95122599  0.36363048     0.18100
N1060       N  0.15331175  0.94244978  0.36224011    -0.88600
H1061       H  0.09578553  0.57270424  0.38925005     0.35500
H1062       H  0.09642988  0.55533260  0.42405637     0.40600
H1063       H  0.14640156  0.93373994  0.34092826     0.40200
H1064       H  0.14588350  0.92720103  0.37926485     0.35100
C1065       C  0.23291484  0.77234509  0.76571086    -0.26700
C1066       C  0.25174746  0.75130924  0.78142432    -0.14700
C1067       C  0.27014377  0.73059162  0.76441339     0.35900
C1068       C  0.26943935  0.73139514  0.73228900    -0.26100
C1069       C  0.25126579  0.75294083  0.71650905    -0.15300
C1070       C  0.23262219  0.77355456  0.73338968     0.37000
N1071       N  0.21315448  0.79526119  0.71771102    -0.89600
H1072       H  0.21864128  0.78811235  0.77873642     0.18100
H1073       H  0.28365537  0.71535625  0.71953929     0.18100
N1074       N  0.28911249  0.70794237  0.77908276    -0.88600
H1075       H  0.20111302  0.80884161  0.73349714     0.35500
H1076       H  0.19667159  0.78274878  0.70549508     0.40600
H1077       H  0.27534946  0.69470789  0.79368138     0.40200
H1078       H  0.30584242  0.71915123  0.79216698     0.35100
C1079       C  0.23418487  0.52416087  0.76932688    -0.26700
C1080       C  0.25430327  0.00422212  0.78374594    -0.14700
C1081       C  0.27912974  0.01647602  0.76663034     0.35900
C1082       C  0.27762226  0.01653082  0.73432317    -0.26100
C1083       C  0.25213032  0.00425885  0.71893301    -0.15300
C1084       C  0.23242162  0.52471806  0.73710001     0.37000
N1085       N  0.21189836  0.54578063  0.72190383    -0.89600
H1086       H  0.22020167  0.53990346  0.78269298     0.14900
H1087       H  0.29648962  0.02595007  0.72104014     0.18100
N1088       N  0.30553885  0.02911442  0.78197446    -0.88600
H1089       H  0.20037715  0.55951852  0.73795732     0.35500
H1090       H  0.19508239  0.53274971  0.71075302     0.40600
H1091       H  0.29826915  0.04864632  0.79397002     0.40200
H1092       H  0.32187987  0.03659342  0.76599652     0.35100
C1093       C  0.27869546  0.85964852  0.88212945    -0.26700
C1094       C  0.25177615  0.84434329  0.87298881    -0.14700
C1095       C  0.22577920  0.86183214  0.86415246     0.35900
C1096       C  0.22713420  0.89407727  0.86542155    -0.26100
C1097       C  0.25403472  0.90935961  0.87464714    -0.15300
C1098       C  0.28006265  0.89184451  0.88305276     0.37000
N1099       N  0.30776115  0.90651402  0.89316823    -0.89600
H1100       H  0.29877942  0.84657072  0.88907054     0.18100
H1101       H  0.20714335  0.90735693  0.85861777     0.18100
N1102       N  0.19828195  0.84693679  0.85342542    -0.88600
H1103       H  0.32567123  0.89951719  0.87872390     0.35500
H1104       H  0.31269679  0.89874677  0.91537882     0.40600
H1105       H  0.20363282  0.83597293  0.83274563     0.40200
H1106       H  0.18118680  0.86315392  0.84834268     0.35100
C1107       C  0.22921076  0.60960251  0.86124523    -0.26700
C1108       C  0.25174919  0.59440913  0.87867813    -0.14700
C1109       C  0.27350829  0.61175239  0.89530812     0.35900
C1110       C  0.27282570  0.64401413  0.89336854    -0.26100
C1111       C  0.25050878  0.65923206  0.87562328    -0.15300
C1112       C  0.22853103  0.64185530  0.85927391     0.37000
N1113       N  0.20620461  0.65694025  0.84006217    -0.89600
H1114       H  0.21263713  0.59620066  0.84835105     0.18100
H1115       H  0.28946232  0.65738761  0.90620429     0.18100
N1116       N  0.29579371  0.59659181  0.91451659    -0.88600
H1117       H  0.19170959  0.64080663  0.82966682     0.35500
H1118       H  0.21813573  0.66786273  0.82229866     0.40600
H1119       H  0.28378086  0.58534825  0.93207764     0.40200
H1120       H  0.31006277  0.61267244  0.92520184     0.35100
C1121       C  0.01835514  0.77145053  0.76824582    -0.26700
C1122       C  0.00240254  0.74763067  0.78295656    -0.14700
C1123       C  0.49142752  0.72259210  0.76308034     0.35900
C1124       C  0.49108400  0.72464980  0.73087982    -0.26100
C1125       C  0.00343533  0.75132189  0.71823169    -0.15300
C1126       C  0.01862776  0.77389728  0.73601364     0.37000
N1127       N  0.03489805  0.79871602  0.72144054    -0.89600
H1128       H  0.02994279  0.78866678  0.78202885     0.18100
H1129       H  0.47734183  0.70855462  0.71775055     0.18100
N1130       N  0.47419990  0.69899142  0.77856498    -0.88600
H1131       H  0.04667285  0.81182596  0.73777631     0.35500
H1132       H  0.01849925  0.81342143  0.71175497     0.40600
H1133       H  0.48995065  0.68466440  0.78982593     0.40200
H1134       H  0.46256136  0.68522507  0.76269436     0.35100
C1135       C  0.47672185  0.51545646  0.76782747    -0.26700
C1136       C  0.49767022  0.49648546  0.78354556    -0.14700
C1137       C  0.01780762  0.97680339  0.76428633     0.35900
C1138       C  0.01643097  0.97789262  0.73207101    -0.26100
C1139       C  0.99698673  0.49976075  0.71815494    -0.15300
C1140       C  0.47695768  0.51730767  0.73552746     0.37000
N1141       N  0.45508527  0.53643416  0.71966745    -0.89600
H1142       H  0.46038450  0.52911187  0.78080010     0.18100
H1143       H  0.02769210  0.96002161  0.71883058     0.18100
N1144       N  0.03331607  0.95183505  0.77952446    -0.88600
H1145       H  0.44083665  0.54781548  0.73535543     0.35500
H1146       H  0.44085322  0.52201672  0.70674518     0.40600
H1147       H  0.05260261  0.96091578  0.79060533     0.40200
H1148       H  0.04167347  0.93599304  0.76348364     0.35100
C1149       C  0.02713066  0.88904920  0.87522077    -0.26700
C1150       C  0.99913342  0.90509688  0.87340563    -0.14700
C1151       C  0.47445775  0.88557540  0.87100852     0.35900
C1152       C  0.47615221  0.85346525  0.86973798    -0.26100
C1153       C  0.50453788  0.83803252  0.87097881    -0.15300
C1154       C  0.02811294  0.85677737  0.87533345     0.37000
N1155       N  0.05734793  0.84129995  0.87692233    -0.89600
H1156       H  0.04854304  0.90171789  0.87634404     0.18100
H1157       H  0.45489198  0.84058083  0.86810579     0.18100
N1158       N  0.44490419  0.90017876  0.87000059    -0.88600
H1159       H  0.57908382  0.85665556  0.87700871     0.35500
H1160       H  0.56526462  0.83062468  0.85231944     0.40600
H1161       H  0.92915838  0.89646337  0.88953815     0.40200
H1162       H  0.93094770  0.89639586  0.85068458     0.35100
C1163       C  0.47598335  0.63869353  0.88433655    -0.26700
C1164       C  0.50266742  0.65323817  0.87338265    -0.14700
C1165       C  0.02397507  0.63717494  0.86489177     0.35900
C1166       C  0.02227300  0.60513464  0.86486655    -0.26100
C1167       C  0.99514597  0.58979998  0.87314684    -0.15300
C1168       C  0.47371745  0.60653505  0.88545692     0.37000
N1169       N  0.44651805  0.59231798  0.89776524    -0.89600
H1170       H  0.45693696  0.65248460  0.89264457     0.18100
H1171       H  0.04249336  0.59213987  0.85818163     0.18100
N1172       N  0.05232467  0.65087343  0.85521144    -0.88600
H1173       H  0.43021402  0.60893653  0.90387728     0.35500
H1174       H  0.45279752  0.58108932  0.91808696     0.40600
H1175       H  0.06179605  0.66316469  0.87353776     0.40200
H1176       H  0.04790111  0.66570230  0.83680745     0.35100
C1177       C  0.27007638  0.72960873  0.23258305    -0.26700
C1178       C  0.24998145  0.74879627  0.21625454    -0.14700
C1179       C  0.23025408  0.76896279  0.23233197     0.35900
C1180       C  0.23071641  0.76906812  0.26464120    -0.26100
C1181       C  0.25022748  0.74919733  0.28103094    -0.15300
C1182       C  0.27013168  0.72922829  0.26483182     0.37000
N1183       N  0.29105728  0.70938765  0.28108929    -0.89600
H1184       H  0.28538307  0.71439693  0.22007968     0.18100
H1185       H  0.21564429  0.78453333  0.27710958     0.18100
N1186       N  0.21035127  0.78963713  0.21581298    -0.88600
H1187       H  0.30583938  0.69823595  0.26573375     0.35500
H1188       H  0.27803736  0.69205722  0.29144288     0.40600
H1189       H  0.22429158  0.80499665  0.20362998     0.40200
H1190       H  0.19730520  0.80287191  0.23105963     0.35100
C1191       C  0.22509360  0.74419948  0.01578942    -0.26700
C1192       C  0.25237131  0.75124983  0.03154118    -0.14700
C1193       C  0.27882813  0.75946019  0.01452096     0.35900
C1194       C  0.27751943  0.75947419  0.98224939    -0.26100
C1195       C  0.25031373  0.75194961  0.96648508    -0.15300
C1196       C  0.22373584  0.74428026  0.98358276     0.37000
N1197       N  0.19553586  0.73611256  0.96837171    -0.89600
H1198       H  0.20471727  0.73792839  0.02867175     0.18100
H1199       H  0.29787866  0.76575429  0.96934367     0.18100
N1200       N  0.30680582  0.76809638  0.02988628    -0.88600
H1201       H  0.17797574  0.73225744  0.98433968     0.35500
H1202       H  0.19922943  0.71515212  0.95718004     0.40600
H1203       H  0.30253035  0.78868265  0.04154976     0.40200
H1204       H  0.32419097  0.77282086  0.01397175     0.35100
C1205       C  0.26377893  0.97433117  0.23497579    -0.26700
C1206       C  0.24791368  0.49904720  0.21911241    -0.14700
C1207       C  0.23349632  0.52339700  0.23491164     0.35900
C1208       C  0.23352646  0.52352202  0.26723113    -0.26100
C1209       C  0.24913977  0.99706177  0.28392770    -0.15300
C1210       C  0.26330486  0.97297556  0.26720858     0.37000
N1211       N  0.27770247  0.94759597  0.28283674    -0.89600
H1212       H  0.27474557  0.95607635  0.22199593     0.18100
H1213       H  0.22232045  0.54218319  0.27937714     0.18100
N1214       N  0.21924454  0.54805100  0.21803379    -0.88600
H1215       H  0.28909411  0.93334203  0.26717867     0.35500
H1216       H  0.26018480  0.93417991  0.29236877     0.40600
H1217       H  0.23654063  0.55946123  0.20581165     0.40200
H1218       H  0.20968724  0.56419271  0.23305736     0.35100
C1219       C  0.22425684  0.00216225  0.98461402    -0.26700
C1220       C  0.25290510  0.49894724  0.96939173    -0.14700
C1221       C  0.28001268  0.49600071  0.98716844     0.35900
C1222       C  0.27790070  0.49598253  0.01935049    -0.26100
C1223       C  0.24941392  0.49849338  0.03439464    -0.15300
C1224       C  0.22242912  0.00174634  0.01689015     0.37000
N1225       N  0.19316327  0.00602119  0.03171302    -0.89600
H1226       H  0.20340172  0.00562808  0.97141958     0.18100
H1227       H  0.29877129  0.49361964  0.03276198     0.18100
N1228       N  0.30960489  0.49290555  0.97270774    -0.88600
H1229       H  0.17549341  0.00770665  0.01548731     0.35500
H1230       H  0.19384993  0.02718028  0.04311636     0.40600
H1231       H  0.31006117  0.47153643  0.96170256     0.40200
H1232       H  0.32717840  0.49236256  0.98912248     0.35100
C1233       C  0.27641665  0.88978031  0.11623339    -0.26700
C1234       C  0.25126409  0.90501214  0.12961053    -0.14700
C1235       C  0.22745801  0.88766422  0.14321759     0.35900
C1236       C  0.22840397  0.85546512  0.14136141    -0.26100
C1237       C  0.25307728  0.84027901  0.12710248    -0.15300
C1238       C  0.27758974  0.85758062  0.11476832     0.37000
N1239       N  0.30313704  0.84252878  0.10008485    -0.89600
H1240       H  0.29487721  0.90306879  0.10607149     0.18100
H1241       H  0.20999983  0.84210761  0.15154733     0.18100
N1242       N  0.20275544  0.90269114  0.15930343    -0.88600
H1243       H  0.31939461  0.85862365  0.09270730     0.35500
H1244       H  0.29475089  0.83174136  0.08032408     0.40600
H1245       H  0.21227849  0.91375315  0.17840512     0.40200
H1246       H  0.18715414  0.88654394  0.16787330     0.35100
C1247       C  0.27311410  0.60615491  0.13598286    -0.26700
C1248       C  0.24733731  0.59034637  0.12480446    -0.14700
C1249       C  0.22241963  0.60734651  0.11243995     0.35900
C1250       C  0.22365448  0.63972315  0.11243147    -0.26100
C1251       C  0.24952075  0.65542004  0.12373037    -0.15300
C1252       C  0.27444236  0.63830690  0.13556161     0.37000
N1253       N  0.30093495  0.65343180  0.14796206    -0.89600
H1254       H  0.29237743  0.59350969  0.14554754     0.18100
H1255       H  0.20457031  0.65274258  0.10302009     0.18100
N1256       N  0.19627192  0.59183450  0.09945015    -0.88600
H1257       H  0.32027889  0.64583313  0.13584664     0.35500
H1258       H  0.30340006  0.64665892  0.17089230     0.40600
H1259       H  0.20387302  0.57991937  0.08000719     0.40200
H1260       H  0.17990193  0.60772702  0.09175049     0.35100
C1261       C  0.47961345  0.73057085  0.26408916    -0.26700
C1262       C  0.00162387  0.74868604  0.28319024    -0.14700
C1263       C  0.01977947  0.76996130  0.26663817     0.35900
C1264       C  0.01908381  0.76960443  0.23436965    -0.26100
C1265       C  0.99986291  0.74926682  0.21843420    -0.15300
C1266       C  0.47792935  0.73094873  0.23182077     0.37000
N1267       N  0.45719201  0.71070530  0.21592772    -0.89600
H1268       H  0.46482136  0.71524226  0.27701638     0.18100
H1269       H  0.03302679  0.78580544  0.22155270     0.18100
N1270       N  0.03947975  0.79123526  0.28251845    -0.88600
H1271       H  0.44455229  0.69755667  0.23157699     0.35500
H1272       H  0.47047887  0.69523086  0.20315341     0.40600
H1273       H  0.02541703  0.80756693  0.29318291     0.40200
H1274       H  0.05305341  0.80345874  0.26689376     0.35100
C1275       C  0.02256474  0.74235617  0.98429942    -0.26700
C1276       C  0.99575883  0.75004474  0.96798509    -0.14700
C1277       C  0.47137855  0.74958204  0.98135242     0.35900
C1278       C  0.47198773  0.74940824  0.01368812    -0.26100
C1279       C  0.99743149  0.75284298  0.03327456    -0.15300
C1280       C  0.02366708  0.74362693  0.01645661     0.37000
N1281       N  0.05148002  0.73487598  0.03184006    -0.89600
H1282       H  0.04298732  0.73497966  0.97205283     0.18100
H1283       H  0.45042648  0.75020374  0.02614321     0.18100
N1284       N  0.44238145  0.75107985  0.96550641    -0.88600
H1285       H  0.06919701  0.74909158  0.02396401     0.35500
H1286       H  0.05675763  0.71223760  0.02563736     0.40600
H1287       H  0.44116656  0.77254197  0.95470343     0.40200
H1288       H  0.42407695  0.75042678  0.98108497     0.35100
C1289       C  0.97831546  0.98542764  0.23149851    -0.26700
C1290       C  0.49416159  0.99947849  0.21839928    -0.14700
C1291       C  0.47834599  0.52180890  0.23571443     0.35900
C1292       C  0.47888543  0.52097025  0.26784656    -0.26100
C1293       C  0.49363185  0.99682803  0.28336857    -0.15300
C1294       C  0.97688841  0.98392096  0.26369598     0.37000
N1295       N  0.95432422  0.96491224  0.27859982    -0.89600
H1296       H  0.96265379  0.97163651  0.21789791     0.18100
H1297       H  0.46737457  0.53910864  0.28050541     0.18100
N1298       N  0.46293042  0.54692075  0.22087215    -0.88600
H1299       H  0.94096478  0.95335708  0.26235603     0.35500
H1300       H  0.93937009  0.97947315  0.29063419     0.40600
H1301       H  0.44509094  0.53812302  0.20739103     0.40200
H1302       H  0.47862077  0.55813113  0.20653917     0.35100
C1303       C  0.02395841  0.49410214  0.98325046    -0.26700
C1304       C  0.49963134  0.99701010  0.96841906    -0.14700
C1305       C  0.47285375  0.00554899  0.98480485     0.35900
C1306       C  0.47353062  0.00619186  0.01707150    -0.26100
C1307       C  0.50048532  0.99928586  0.03353586    -0.15300
C1308       C  0.02559875  0.49443723  0.01550248     0.37000
N1309       N  0.05389966  0.48635161  0.03063103    -0.89600
H1310       H  0.04426858  0.48791602  0.97019863     0.18100
H1311       H  0.45288135  0.01267896  0.02942344     0.18100
N1312       N  0.44521041  0.01415747  0.96876592    -0.88600
H1313       H  0.07128176  0.48203059  0.01455520     0.35500
H1314       H  0.05022538  0.46566826  0.04230817     0.40600
H1315       H  0.44979285  0.03457767  0.95688056     0.40200
H1316       H  0.42752703  0.01920101  0.98424143     0.35100
C1317       C  0.47015063  0.85887543  0.11801692    -0.26700
C1318       C  0.49808611  0.84305752  0.12200223    -0.14700
C1319       C  0.02707301  0.86203205  0.13523109     0.35900
C1320       C  0.02630175  0.89425185  0.13447169    -0.26100
C1321       C  0.99885148  0.91022525  0.12832723    -0.15300
C1322       C  0.46891792  0.89108347  0.11880297     0.37000
N1323       N  0.44003151  0.90627597  0.11403353    -0.89600
H1324       H  0.44902541  0.84624541  0.11416250     0.18100
H1325       H  0.04740962  0.90677018  0.13876251     0.18100
N1326       N  0.05540513  0.84667009  0.14224139    -0.88600
H1327       H  0.42463473  0.89856335  0.13078632     0.35500
H1328       H  0.43154344  0.89967704  0.09253162     0.40600
H1329       H  0.07180267  0.85340430  0.12602326     0.40200
H1330       H  0.06283152  0.85415127  0.16384615     0.35100
C1331       C  0.02372457  0.64470221  0.11807232    -0.26700
C1332       C  0.49740217  0.65802101  0.12658494    -0.14700
C1333       C  0.46970507  0.64107236  0.12856848     0.35900
C1334       C  0.47089028  0.60886334  0.12879675    -0.26100
C1335       C  0.99831019  0.59540723  0.12459446    -0.15300
C1336       C  0.02504960  0.61251460  0.11767031     0.37000
N1337       N  0.05340671  0.59730583  0.10989872    -0.89600
H1338       H  0.04429613  0.65764280  0.11261018     0.18100
H1339       H  0.44953445  0.59612388  0.13018186     0.18100
N1340       N  0.44041035  0.65640319  0.13041599    -0.88600
H1341       H  0.07103136  0.61330923  0.10639005     0.35500
H1342       H  0.05008978  0.58616055  0.08889579     0.40600
H1343       H  0.43941829  0.66748250  0.15171572     0.40200
H1344       H  0.42237468  0.64050712  0.13026017     0.35100
O1345       O  0.52395952  0.00029620  0.08353005    -0.72100
O1346       O  0.52008996  0.49762699  0.17095536    -0.72300
O1347       O  0.52016381  0.45621391  0.12558523    -0.72200
O1348       O  0.52327100  0.04353150  0.12747974    -0.72200
O1349       O  0.97672434  0.04669520  0.12327344    -0.72200
O1350       O  0.97395694  0.45931731  0.12578481    -0.72200
O1351       O  0.97550329  0.00397507  0.16776983    -0.72100
O1352       O  0.97415640  0.50223680  0.08165482    -0.72300
V1353       V  0.52046702  0.49965244  0.12731645     1.35200
V1354       V  0.97472461  0.50291501  0.12523388     1.35200
C1355       C  0.99920539  0.50276573  0.06688448     0.77100
C1356       C  0.99817366  0.50301176  0.18393788     0.77200
C1357       C  0.49484662  0.44196200  0.12560671     0.77100
C1358       C  0.49863257  0.05891333  0.12626162     0.77000
O1359       O  0.97618109  0.25163145  0.16896989    -0.72100
O1360       O  0.97736086  0.25345666  0.08181505    -0.72300
O1361       O  0.97654821  0.20936824  0.12472811    -0.72200
O1362       O  0.97696694  0.29638686  0.12600556    -0.72200
O1363       O  0.52144666  0.29373141  0.12371534    -0.72200
O1364       O  0.52164261  0.20676324  0.12696485    -0.72200
O1365       O  0.52267441  0.24857376  0.08177132    -0.72100
O1366       O  0.52050978  0.25202968  0.16881850    -0.72300
V1367       V  0.97772853  0.25279914  0.12541947     1.35200
V1368       V  0.52060465  0.25028358  0.12527652     1.35200
C1369       C  0.49521854  0.25102134  0.18309435     0.77100
C1370       C  0.49819523  0.24891870  0.06608929     0.77200
C1371       C  0.00130551  0.19420274  0.12585350     0.77100
C1372       C  0.00197416  0.31120082  0.12551543     0.77000
O1373       O  0.72418596  0.45542938  0.12524903    -0.72100
O1374       O  0.72282670  0.04172620  0.12679563    -0.72300
O1375       O  0.72563142  0.49851404  0.08107953    -0.72200
O1376       O  0.72251570  0.99852585  0.17065608    -0.72200
O1377       O  0.77319284  0.49775883  0.16960597    -0.72200
O1378       O  0.77472180  0.99837949  0.08453744    -0.72200
O1379       O  0.77268511  0.04241270  0.12736848    -0.72100
O1380       O  0.77405498  0.45495859  0.12516897    -0.72300
V1381       V  0.72549992  0.49904321  0.12467606     1.35200
V1382       V  0.77256009  0.99895728  0.12811227     1.35200
C1383       C  0.74900918  0.44023753  0.12500821     0.77100
C1384       C  0.74751410  0.05698640  0.12668073     0.77200
C1385       C  0.75017312  0.99882642  0.06896986     0.77100
C1386       C  0.74716412  0.99956753  0.18608315     0.77000
O1387       O  0.72484653  0.24878642  0.16689683    -0.72100
O1388       O  0.72650470  0.24866765  0.07966141    -0.72300
O1389       O  0.72538612  0.20508857  0.12348514    -0.72200
O1390       O  0.72628101  0.29226973  0.12312932    -0.72200
O1391       O  0.77604746  0.29158131  0.12588954    -0.72200
O1392       O  0.77523960  0.20470398  0.12264581    -0.72200
O1393       O  0.77635291  0.24981324  0.08056726    -0.72100
O1394       O  0.77472632  0.24616321  0.16795551    -0.72300
V1395       V  0.72670607  0.24867608  0.12329788     1.35200
V1396       V  0.77463933  0.24809740  0.12422775     1.35200
C1397       C  0.74943313  0.24711207  0.18232929     0.77100
C1398       C  0.75167261  0.24977647  0.06513101     0.77200
C1399       C  0.75026723  0.18996563  0.12330266     0.77100
C1400       C  0.75137359  0.30689278  0.12461553     0.77000
O1401       O  0.52726992  0.99527284  0.83272259    -0.72100
O1402       O  0.52208437  0.49766712  0.91977462    -0.72300
O1403       O  0.52206120  0.45250088  0.87749006    -0.72200
O1404       O  0.52645241  0.03909797  0.87609029    -0.72200
O1405       O  0.97662023  0.04165024  0.87491033    -0.72200
O1406       O  0.97113490  0.45369675  0.87529897    -0.72200
O1407       O  0.97486335  0.99640106  0.91668487    -0.72100
O1408       O  0.97072217  0.49743079  0.83144718    -0.72300
V1409       V  0.52131641  0.49597993  0.87610085     1.35200
V1410       V  0.97174295  0.49727840  0.87515138     1.35200
C1411       C  0.99575765  0.49627009  0.81667768     0.77100
C1412       C  0.99596437  0.49922761  0.93360699     0.77200
C1413       C  0.49712259  0.43767198  0.87619562     0.77100
C1414       C  0.50148443  0.05407341  0.87629456     0.77000
O1415       O  0.97654536  0.24865358  0.91820169    -0.72100
O1416       O  0.97800830  0.24635453  0.83096291    -0.72300
O1417       O  0.97890551  0.20406325  0.87562112    -0.72200
O1418       O  0.97570177  0.29106269  0.87359299    -0.72200
O1419       O  0.52664600  0.29018332  0.87538041    -0.72200
O1420       O  0.52876606  0.20300184  0.87408790    -0.72200
O1421       O  0.52888224  0.24778922  0.83095198    -0.72100
O1422       O  0.52626259  0.24591909  0.91848491    -0.72300
V1423       V  0.97826169  0.24755381  0.87459665     1.35200
V1424       V  0.52672088  0.24663576  0.87470570     1.35200
C1425       C  0.50078654  0.24672841  0.93261104     0.77100
C1426       C  0.50422348  0.24623885  0.81557598     0.77200
C1427       C  0.00429409  0.18984373  0.87627207     0.77100
C1428       C  0.00017563  0.30670641  0.87336064     0.77000
O1429       O  0.73070976  0.46092416  0.87139507    -0.72100
O1430       O  0.73016554  0.04745731  0.87731088    -0.72300
O1431       O  0.73151158  0.50749215  0.83090888    -0.72200
O1432       O  0.73063237  0.00374263  0.92089306    -0.72200
O1433       O  0.78088065  0.50403422  0.91822029    -0.72200
O1434       O  0.78041870  0.00615479  0.83367090    -0.72200
O1435       O  0.78004843  0.04786335  0.87899724    -0.72100
O1436       O  0.78045305  0.46016567  0.87500299    -0.72300
V1437       V  0.73228785  0.50450546  0.87436424     1.35200
V1438       V  0.77959258  0.00437448  0.87732975     1.35200
C1439       C  0.75544485  0.44559498  0.87287239     0.77100
C1440       C  0.75498303  0.06257053  0.87825352     0.77200
C1441       C  0.75542026  0.00510799  0.81880761     0.77100
C1442       C  0.75550930  0.00256960  0.93590310     0.77000
O1443       O  0.72637303  0.25298545  0.91593619    -0.72100
O1444       O  0.72917056  0.25495952  0.82876170    -0.72300
O1445       O  0.72773726  0.21041712  0.87144581    -0.72200
O1446       O  0.72768023  0.29755674  0.87298464    -0.72200
O1447       O  0.77758321  0.29741943  0.87239363    -0.72200
O1448       O  0.77750443  0.21030814  0.87521159    -0.72200
O1449       O  0.77909425  0.25227232  0.83032938    -0.72100
O1450       O  0.77618558  0.25503148  0.91737760    -0.72300
V1451       V  0.72868437  0.25398486  0.87232743     1.35200
V1452       V  0.77663688  0.25382482  0.87382229     1.35200
C1453       C  0.75086658  0.25359096  0.93162157     0.77100
C1454       C  0.75459793  0.25337559  0.81478205     0.77200
C1455       C  0.75260519  0.19544668  0.87334806     0.77100
C1456       C  0.75261742  0.31241677  0.87221903     0.77000
O1457       O  0.49880986  0.02183568  0.41974131    -0.72100
O1458       O  0.99795986  0.02542782  0.33029467    -0.72300
O1459       O  0.95367692  0.02414547  0.37337540    -0.72200
O1460       O  0.54037628  0.02248257  0.37454400    -0.72200
O1461       O  0.53877354  0.47434104  0.37778590    -0.72200
O1462       O  0.95216056  0.47510287  0.37370371    -0.72200
O1463       O  0.49604621  0.47294926  0.33324734    -0.72100
O1464       O  0.99460305  0.47608312  0.41886250    -0.72300
V1465       V  0.99730994  0.02360370  0.37372904     1.35200
V1466       V  0.99573119  0.47686399  0.37512603     1.35200
C1467       C  0.99487714  0.50114897  0.43370676     0.77100
C1468       C  0.99664578  0.50092677  0.31661202     0.77200
C1469       C  0.93902077  0.99905997  0.37467226     0.77100
C1470       C  0.55587649  0.99788962  0.37448717     0.77000
O1471       O  0.99945062  0.22268854  0.41839337    -0.72100
O1472       O  0.49493638  0.22696686  0.32986631    -0.72300
O1473       O  0.54022739  0.22447831  0.37169972    -0.72200
O1474       O  0.95456692  0.22060380  0.37599579    -0.72200
O1475       O  0.95282023  0.27039495  0.37389572    -0.72200
O1476       O  0.54174976  0.27436005  0.37352019    -0.72200
O1477       O  0.99705092  0.27187645  0.33098655    -0.72100
O1478       O  0.49895824  0.27477466  0.41800697    -0.72300
V1479       V  0.49683835  0.22680560  0.37350140     1.35200
V1480       V  0.49809081  0.27476692  0.37447818     1.35200
C1481       C  0.49927205  0.24956351  0.43251042     0.77100
C1482       C  0.49599375  0.25230932  0.31560296     0.77200
C1483       C  0.55585967  0.24892601  0.37197425     0.77100
C1484       C  0.93873878  0.24497507  0.37491656     0.77000
O1485       O  0.70213282  0.47226771  0.37522868    -0.72100
O1486       O  0.78948725  0.47430016  0.37425766    -0.72300
O1487       O  0.74624731  0.47269073  0.41824756    -0.72200
O1488       O  0.74575150  0.47362425  0.33108863    -0.72200
O1489       O  0.74599381  0.02581377  0.33384087    -0.72200
O1490       O  0.74709417  0.02468501  0.42127725    -0.72200
O1491       O  0.79033198  0.02630315  0.37694363    -0.72100
O1492       O  0.70313391  0.02408272  0.37794109    -0.72300
V1493       V  0.74582400  0.47416879  0.37469241     1.35200
V1494       V  0.74670337  0.02429338  0.37753459     1.35200
C1495       C  0.68894972  0.99876410  0.37623414     0.77100
C1496       C  0.80587898  0.00170488  0.37746797     0.77200
C1497       C  0.74608340  0.49740342  0.43351714     0.77100
C1498       C  0.74506325  0.49876431  0.31651589     0.77000
O1499       O  0.70374012  0.21905010  0.37227245    -0.72100
O1500       O  0.79083598  0.22046570  0.37680758    -0.72300
O1501       O  0.74491237  0.22067438  0.41808800    -0.72200
O1502       O  0.74972527  0.21888705  0.33078547    -0.72200
O1503       O  0.74526544  0.26864043  0.32974166    -0.72200
O1504       O  0.74769186  0.27052277  0.41702367    -0.72200
O1505       O  0.79005659  0.27012149  0.37228330    -0.72100
O1506       O  0.70311381  0.26893988  0.37446172    -0.72300
V1507       V  0.74729754  0.22068143  0.37445328     1.35200
V1508       V  0.74656110  0.26861034  0.37340113     1.35200
C1509       C  0.68853895  0.24384332  0.37319440     0.77100
C1510       C  0.80540613  0.24555743  0.37490302     0.77200
C1511       C  0.74592417  0.24593223  0.43248441     0.77100
C1512       C  0.74771998  0.24348889  0.31534870     0.77000
O1513       O  0.99965214  0.47548789  0.66947697    -0.72100
O1514       O  0.49842723  0.47675123  0.58276267    -0.72300
O1515       O  0.54285279  0.47604713  0.62536650    -0.72200
O1516       O  0.95640647  0.47410688  0.62572988    -0.72200
O1517       O  0.95569892  0.02352659  0.62324053    -0.72200
O1518       O  0.54333104  0.02612845  0.62826014    -0.72200
O1519       O  0.99952258  0.02371568  0.57994857    -0.72100
O1520       O  0.49814093  0.02658775  0.66998982    -0.72300
V1521       V  0.49927529  0.47739229  0.62623354     1.35200
V1522       V  0.50000424  0.02466796  0.62629038     1.35200
C1523       C  0.49998412  0.00184619  0.68524667     0.77100
C1524       C  0.50062930  0.99881991  0.56833092     0.77200
C1525       C  0.55788679  0.50092564  0.62539330     0.77100
C1526       C  0.94078686  0.49866563  0.62568116     0.77000
O1527       O  0.49972233  0.22680107  0.58099252    -0.72100
O1528       O  0.99962000  0.22763234  0.66876127    -0.72300
O1529       O  0.95578556  0.22716235  0.62544541    -0.72200
O1530       O  0.54288989  0.22783049  0.62496974    -0.72200
O1531       O  0.54217304  0.27762481  0.62305857    -0.72200
O1532       O  0.95486573  0.27708737  0.62535300    -0.72200
O1533       O  0.50006949  0.27752970  0.66796196    -0.72100
O1534       O  0.99817621  0.27776791  0.58153176    -0.72300
V1535       V  0.99921123  0.22877575  0.62518002     1.35200
V1536       V  0.99851577  0.27676315  0.62527088     1.35200
C1537       C  0.99833249  0.25278570  0.56660143     0.77100
C1538       C  0.99998143  0.25249056  0.68381313     0.77200
C1539       C  0.94044614  0.25183745  0.62516642     0.77100
C1540       C  0.55750802  0.25294549  0.62397830     0.77000
O1541       O  0.70622595  0.47447261  0.62692944    -0.72100
O1542       O  0.79316990  0.47545290  0.62433825    -0.72300
O1543       O  0.75133259  0.47545253  0.66930798    -0.72200
O1544       O  0.74830079  0.47481519  0.58201381    -0.72200
O1545       O  0.74646051  0.02494916  0.58438256    -0.72200
O1546       O  0.75410566  0.02534816  0.67119979    -0.72200
O1547       O  0.79381119  0.02456958  0.62399952    -0.72100
O1548       O  0.70676174  0.02527350  0.63160374    -0.72300
V1549       V  0.74970963  0.47595602  0.62565254     1.35200
V1550       V  0.75029249  0.02410073  0.62780297     1.35200
C1551       C  0.69173514  0.00034902  0.63117565     0.77100
C1552       C  0.80857622  0.99947207  0.62483573     0.77200
C1553       C  0.74929302  0.50060124  0.68376728     0.77100
C1554       C  0.74927795  0.49973062  0.56694934     0.77000
O1555       O  0.74763095  0.22490095  0.58080323    -0.72100
O1556       O  0.75197609  0.22666189  0.66808069    -0.72300
O1557       O  0.70624590  0.22532007  0.62636676    -0.72200
O1558       O  0.79322507  0.22608654  0.62241972    -0.72200
O1559       O  0.79268832  0.27603390  0.62259537    -0.72200
O1560       O  0.70560374  0.27510232  0.62399550    -0.72200
O1561       O  0.74994710  0.27654094  0.66685495    -0.72100
O1562       O  0.74860383  0.27483700  0.57986365    -0.72300
V1563       V  0.74974259  0.22668259  0.62441463     1.35200
V1564       V  0.74919069  0.27465262  0.62338573     1.35200
C1565       C  0.74785938  0.24963759  0.56544762     0.77100
C1566       C  0.75151553  0.25201050  0.68236306     0.77200
C1567       C  0.69095070  0.25001051  0.62522502     0.77100
C1568       C  0.80781046  0.25120343  0.62192521     0.77000
C1569       C  0.89066037  0.27680846  0.61233515    -0.26700
C1570       C  0.90651915  0.25119539  0.62404986    -0.14700
C1571       C  0.88975063  0.22517046  0.63371388     0.35900
C1572       C  0.85761578  0.22557263  0.63239405    -0.26100
C1573       C  0.84171889  0.25137628  0.62126228    -0.15300
C1574       C  0.85843589  0.27696835  0.61028260     0.37000
N1575       N  0.84276043  0.30270115  0.59655503    -0.89600
H1576       H  0.90347651  0.29652373  0.60409985     0.18100
H1577       H  0.84505298  0.20569419  0.64065215     0.18100
N1578       N  0.90513748  0.19845909  0.64545666    -0.88600
H1579       H  0.83212429  0.29479824  0.57649322     0.35500
H1580       H  0.85845564  0.31956702  0.58973362     0.40600
H1581       H  0.89890365  0.17962856  0.63184213     0.40200
H1582       H  0.89724624  0.19443111  0.66777038     0.35100
C1583       C  0.64139888  0.27817696  0.62864442    -0.26700
C1584       C  0.65681167  0.24997085  0.62504905    -0.14700
C1585       C  0.63913159  0.22294512  0.62057387     0.35900
C1586       C  0.60706253  0.22481533  0.62017282    -0.26100
C1587       C  0.59164718  0.25300102  0.62396418    -0.15300
C1588       C  0.60933661  0.28007190  0.62807005     0.37000
N1589       N  0.59572418  0.30984520  0.63202182    -0.89600
H1590       H  0.65434828  0.29919708  0.63200250     0.18100
H1591       H  0.59411551  0.20381092  0.61670514     0.18100
N1592       N  0.65276273  0.19328436  0.61588883    -0.88600
H1593       H  0.58132261  0.30936495  0.65122086     0.35500
H1594       H  0.58298682  0.31532918  0.61236143     0.40600
H1595       H  0.66551370  0.18731200  0.63538204     0.40200
H1596       H  0.66716227  0.19426500  0.59669243     0.35100
C1597       C  0.85747238  0.47227147  0.62715240    -0.26700
C1598       C  0.84258918  0.99889926  0.62352000    -0.14700
C1599       C  0.85943577  0.02258170  0.60907333     0.35900
C1600       C  0.89171295  0.02172640  0.60978391    -0.26100
C1601       C  0.90678104  0.49840723  0.62600127    -0.15300
C1602       C  0.88964562  0.47092172  0.62716472     0.37000
N1603       N  0.90463087  0.44156425  0.62845446    -0.89600
H1604       H  0.84474371  0.45087516  0.62812304     0.18100
H1605       H  0.90458139  0.03992296  0.59864249     0.18100
N1606       N  0.84379297  0.04716653  0.59335935    -0.88600
H1607       H  0.89736806  0.42859997  0.60958360     0.35500
H1608       H  0.89740958  0.43030477  0.64843715     0.40600
H1609       H  0.83213011  0.03755477  0.57468327     0.40200
H1610       H  0.85958311  0.06283769  0.58422956     0.35100
C1611       C  0.60762377  0.47321677  0.63112120    -0.26700
C1612       C  0.59189158  0.50062678  0.62434761    -0.14700
C1613       C  0.60962080  0.02972660  0.63250472     0.35900
C1614       C  0.64189551  0.02852509  0.63295269    -0.26100
C1615       C  0.65768030  0.00033116  0.63257468    -0.15300
C1616       C  0.63982565  0.47204690  0.63120344     0.37000
N1617       N  0.65492512  0.44369016  0.63868353    -0.89600
H1618       H  0.59491927  0.45255686  0.63683892     0.18100
H1619       H  0.65476317  0.04984538  0.63340431     0.18100
N1620       N  0.59429717  0.05907644  0.63327986    -0.88600
H1621       H  0.64772463  0.42697917  0.62297165     0.35500
H1622       H  0.64775054  0.43689893  0.66058191     0.40600
H1623       H  0.61022108  0.07706326  0.63272343     0.40200
H1624       H  0.58304935  0.06075355  0.65446444     0.35100
C1625       C  0.76016460  0.27119285  0.48174693    -0.26700
C1626       C  0.74545668  0.24682168  0.46653811    -0.14700
C1627       C  0.73092177  0.22362385  0.48408660     0.35900
C1628       C  0.73224177  0.22487419  0.51635822    -0.26100
C1629       C  0.74719564  0.24911264  0.53147673    -0.15300
C1630       C  0.76128429  0.27245163  0.51392801     0.37000
N1631       N  0.77767052  0.29693880  0.52864116    -0.89600
H1632       H  0.77151053  0.28906599  0.46859723     0.18100
H1633       H  0.72104225  0.20712539  0.52979208     0.18100
N1634       N  0.71434417  0.19925516  0.46916216    -0.88600
H1635       H  0.76790992  0.31778701  0.52163505     0.35500
H1636       H  0.80046217  0.29639295  0.52094956     0.40600
H1637       H  0.69558141  0.20924788  0.45788268     0.40200
H1638       H  0.70523009  0.18400646  0.48535163     0.35100
C1639       C  0.74978581  0.47136780  0.51728322    -0.26700
C1640       C  0.74838726  0.49965405  0.53281054    -0.14700
C1641       C  0.73527436  0.02596126  0.51833013     0.35900
C1642       C  0.73624446  0.02525074  0.48601788    -0.26100
C1643       C  0.74701647  0.49727511  0.46768237    -0.15300
C1644       C  0.74916200  0.46978332  0.48504651     0.37000
N1645       N  0.75066587  0.44030008  0.47013663    -0.89600
H1646       H  0.75161981  0.45022212  0.53035342     0.18100
H1647       H  0.72855901  0.04520528  0.47318466     0.18100
N1648       N  0.72383538  0.05285478  0.53384491    -0.88600
H1649       H  0.75035623  0.42248460  0.48628255     0.35500
H1650       H  0.77197151  0.43889659  0.45905389     0.40600
H1651       H  0.70347756  0.04664156  0.54503926     0.40200
H1652       H  0.71792719  0.07001072  0.51805045     0.35100
C1653       C  0.50892189  0.22492070  0.51612453    -0.26700
C1654       C  0.49839161  0.25126954  0.53169482    -0.14700
C1655       C  0.99112258  0.27845647  0.51455089     0.35900
C1656       C  0.99177399  0.27636217  0.48232156    -0.26100
C1657       C  0.49973144  0.24943175  0.46660610    -0.15300
C1658       C  0.50987938  0.22375692  0.48380767     0.37000
N1659       N  0.52154436  0.19681734  0.46854822    -0.89600
H1660       H  0.51693501  0.20527225  0.52922318     0.18100
H1661       H  0.98613421  0.29656787  0.46885064     0.18100
N1662       N  0.98279824  0.30703081  0.52899322    -0.88600
H1663       H  0.52767346  0.17992098  0.48452832     0.35500
H1664       H  0.54179679  0.20310150  0.45719243     0.40600
H1665       H  0.96170785  0.30366483  0.54004492     0.40200
H1666       H  0.97913184  0.32420814  0.51255375     0.35100
C1667       C  0.88870249  0.27240483  0.37552278    -0.26700
C1668       C  0.90462361  0.24426553  0.37490153    -0.14700
C1669       C  0.88767152  0.21649733  0.37458726     0.35900
C1670       C  0.85540032  0.21770114  0.37503775    -0.26100
C1671       C  0.83951585  0.24588578  0.37550342    -0.15300
C1672       C  0.85649586  0.27361136  0.37609785     0.37000
N1673       N  0.84120594  0.30295159  0.37749303    -0.89600
H1674       H  0.90144394  0.29379964  0.37593832     0.18100
H1675       H  0.84258904  0.19634588  0.37458629     0.18100
N1676       N  0.90302671  0.18717413  0.37369524    -0.88600
H1677       H  0.85709210  0.32096792  0.37643201     0.35500
H1678       H  0.83065840  0.30454167  0.39902729     0.40600
H1679       H  0.91350063  0.18518355  0.35217374     0.40200
H1680       H  0.88714633  0.16916153  0.37513551     0.35100
C1681       C  0.60464848  0.22051676  0.38090316    -0.26700
C1682       C  0.58979559  0.24749485  0.37097941    -0.14700
C1683       C  0.60755053  0.27258064  0.36060637     0.35900
C1684       C  0.63969321  0.27068991  0.36183848    -0.26100
C1685       C  0.65458832  0.24401899  0.37236977    -0.15300
C1686       C  0.63687252  0.21846872  0.38175942     0.37000
N1687       N  0.65148441  0.19082174  0.39264177    -0.89600
H1688       H  0.59106127  0.20114755  0.38871578     0.18100
H1689       H  0.65323263  0.29007661  0.35398756     0.18100
N1690       N  0.59299313  0.29964886  0.34831747    -0.88600
H1691       H  0.63508218  0.17407240  0.39800900     0.35500
H1692       H  0.66270787  0.19615938  0.41318201     0.40600
H1693       H  0.58177227  0.29318833  0.32809061     0.40200
H1694       H  0.60940697  0.31604388  0.34201467     0.35100
C1695       C  0.99381526  0.47333136  0.48381643    -0.26700
C1696       C  0.99592354  0.50138408  0.46791483    -0.14700
C1697       C  0.51169375  0.02353260  0.48537270     0.35900
C1698       C  0.51087194  0.02343528  0.51766351    -0.26100
C1699       C  0.50069284  0.99762378  0.53416722    -0.15300
C1700       C  0.99462901  0.47208057  0.51608587     0.37000
N1701       N  0.47071324  0.45125436  0.53357589    -0.89600
H1702       H  0.99122297  0.45212259  0.47102024     0.18100
H1703       H  0.51869815  0.04358194  0.53003334     0.18100
N1704       N  0.99364220  0.05566164  0.46825635    -0.88600
H1705       H  0.99108065  0.42488187  0.51546543     0.35500
H1706       H  0.97073242  0.44270443  0.54281873     0.40600
H1707       H  0.54348994  0.04332768  0.45804417     0.40200
H1708       H  0.52943796  0.06735980  0.48468219     0.35100
C1709       C  0.85353950  0.47674414  0.35923687    -0.26700
C1710       C  0.83992730  0.00195977  0.37701014    -0.14700
C1711       C  0.85713954  0.02636496  0.36404031     0.35900
C1712       C  0.88924124  0.02464982  0.36354107    -0.26100
C1713       C  0.90496741  0.99904992  0.37549469    -0.15300
C1714       C  0.88567780  0.47596354  0.35851719     0.37000
N1715       N  0.90020267  0.45176225  0.34150466    -0.89600
H1716       H  0.84084773  0.45879621  0.34750253     0.18100
H1717       H  0.90199123  0.04348413  0.35334833     0.18100
N1718       N  0.84286335  0.05276737  0.35037718    -0.88600
H1719       H  0.91315180  0.43823180  0.35656683     0.35500
H1720       H  0.91476435  0.46157370  0.32508246     0.40600
H1721       H  0.83062614  0.06468223  0.36729123     0.40200
H1722       H  0.82773211  0.04538796  0.33324485     0.35100
C1723       C  0.63854663  0.02511097  0.38188695    -0.26700
C1724       C  0.65492922  0.99805237  0.37529821    -0.14700
C1725       C  0.63539959  0.46978555  0.38122593     0.35900
C1726       C  0.60318779  0.47112992  0.38073858    -0.26100
C1727       C  0.58989078  0.99859006  0.37446871    -0.15300
C1728       C  0.60635884  0.02559339  0.38175261     0.37000
N1729       N  0.59062700  0.05344391  0.38978101    -0.89600
H1730       H  0.65071731  0.04606271  0.38767809     0.18100
H1731       H  0.59039505  0.44993839  0.38357268     0.18100
N1732       N  0.65031799  0.44082069  0.38634474    -0.88600
H1733       H  0.59755240  0.07068478  0.37451485     0.35500
H1734       H  0.59753133  0.05983651  0.41188833     0.40600
H1735       H  0.64320667  0.42558076  0.36922107     0.40200
H1736       H  0.64284429  0.43219390  0.40752966     0.35100
C1737       C  0.74107143  0.27736097  0.76530289    -0.26700
C1738       C  0.75542623  0.25323869  0.78107147    -0.14700
C1739       C  0.76914234  0.22899007  0.76442778     0.35900
C1740       C  0.76737333  0.22888022  0.73231769    -0.26100
C1741       C  0.75284128  0.25299045  0.71634180    -0.15300
C1742       C  0.73990618  0.27774756  0.73307770     0.37000
N1743       N  0.72518360  0.30292631  0.71742550    -0.89600
H1744       H  0.73069508  0.29597979  0.77825818     0.18100
H1745       H  0.77766792  0.20994935  0.71977411     0.18100
N1746       N  0.78421043  0.20384740  0.77956827    -0.88600
H1747       H  0.71762379  0.31951954  0.73312160     0.35500
H1748       H  0.70553191  0.29428420  0.70663359     0.40600
H1749       H  0.76860509  0.19358324  0.79468511     0.40200
H1750       H  0.80262676  0.21254170  0.79232939     0.35100
C1751       C  0.73027547  0.99035566  0.76969542    -0.26700
C1752       C  0.75583632  0.50490534  0.78193353    -0.14700
C1753       C  0.77856973  0.48938183  0.76453343     0.35900
C1754       C  0.77520224  0.48725262  0.73249589    -0.26100
C1755       C  0.75048145  0.50141450  0.71746431    -0.15300
C1756       C  0.72931868  0.98822604  0.73750100     0.37000
N1757       N  0.70351073  0.97406766  0.72244090    -0.89600
H1758       H  0.71180351  0.98036129  0.78309476     0.14900
H1759       H  0.79244382  0.47527424  0.71903452     0.18100
N1760       N  0.80461718  0.47531243  0.77932049    -0.88600
H1761       H  0.68707618  0.96712408  0.73855866     0.35500
H1762       H  0.71139364  0.95401790  0.71177950     0.40600
H1763       H  0.81863507  0.49305279  0.78748133     0.40200
H1764       H  0.81792482  0.46319787  0.76338201     0.35100
C1765       C  0.77997471  0.36187479  0.87954435    -0.26700
C1766       C  0.75283955  0.34647378  0.87141505    -0.14700
C1767       C  0.72664610  0.36385744  0.86286258     0.35900
C1768       C  0.72802085  0.39615595  0.86368728    -0.26100
C1769       C  0.75512123  0.41151458  0.87220311    -0.15300
C1770       C  0.78139169  0.39401722  0.88000499     0.37000
N1771       N  0.80951958  0.40863670  0.88895651    -0.89600
H1772       H  0.80027664  0.34891750  0.88606558     0.18100
H1773       H  0.70787553  0.40938068  0.85725148     0.18100
N1774       N  0.69890902  0.34881936  0.85298447    -0.88600
H1775       H  0.82687301  0.40139158  0.87395493     0.35500
H1776       H  0.81520563  0.40112569  0.91106944     0.40600
H1777       H  0.70379305  0.33755404  0.83231612     0.40200
H1778       H  0.68172856  0.36494853  0.84806715     0.35100
C1779       C  0.72845376  0.11171576  0.86626292    -0.26700
C1780       C  0.75460855  0.09658158  0.87772708    -0.14700
C1781       C  0.78014422  0.11410793  0.88751645     0.35900
C1782       C  0.77896958  0.14627293  0.88534788    -0.26100
C1783       C  0.75279494  0.16142923  0.87396334    -0.15300
C1784       C  0.72734146  0.14389975  0.86395325     0.37000
N1785       N  0.70068904  0.15865931  0.85099833    -0.89600
H1786       H  0.70899045  0.09833647  0.85835686     0.18100
H1787       H  0.79849116  0.15960859  0.89318186     0.18100
N1788       N  0.80700637  0.09934144  0.90003027    -0.88600
H1789       H  0.68388463  0.14244762  0.84532613     0.35500
H1790       H  0.70745748  0.16896879  0.83035388     0.40600
H1791       H  0.80056210  0.08891633  0.92071003     0.40200
H1792       H  0.82388377  0.11555186  0.90552088     0.35100
C1793       C  0.51900211  0.27154922  0.76651712    -0.26700
C1794       C  0.50436631  0.24717441  0.78172996    -0.14700
C1795       C  0.98617355  0.22603702  0.76557434     0.35900
C1796       C  0.98533692  0.22833459  0.73337118    -0.26100
C1797       C  0.50105922  0.25220752  0.71708275    -0.15300
C1798       C  0.51695665  0.27474474  0.73435226     0.37000
N1799       N  0.53143644  0.30037679  0.71930216    -0.89600
H1800       H  0.53114092  0.28870096  0.77989908     0.18100
H1801       H  0.97198552  0.21186251  0.72030124     0.18100
N1802       N  0.96987764  0.20180861  0.78108290    -0.88600
H1803       H  0.54363625  0.31367404  0.73516516     0.35500
H1804       H  0.51395851  0.31458676  0.71082497     0.40600
H1805       H  0.98621610  0.18776211  0.79183504     0.40200
H1806       H  0.95830392  0.18793337  0.76525032     0.35100
C1807       C  0.98733889  0.02371633  0.76634803    -0.26700
C1808       C  0.00280228  0.99978042  0.78150815    -0.14700
C1809       C  0.51865793  0.47850413  0.76663851     0.35900
C1810       C  0.51874455  0.48008242  0.73445002    -0.26100
C1811       C  0.50094687  0.00178237  0.71901759    -0.15300
C1812       C  0.98655165  0.02523287  0.73408006     0.37000
N1813       N  0.97058058  0.04998519  0.71898878    -0.89600
H1814       H  0.97588085  0.04131349  0.77979979     0.18100
H1815       H  0.53494846  0.46610120  0.72164503     0.18100
N1816       N  0.53941163  0.45803955  0.78206058    -0.88600
H1817       H  0.96159280  0.06541091  0.73512548     0.35500
H1818       H  0.95178841  0.04051894  0.70740333     0.40600
H1819       H  0.56184413  0.46403286  0.77585398     0.40200
H1820       H  0.53522400  0.43571549  0.77414978     0.35100
C1821       C  0.52540887  0.38851827  0.86886857    -0.26700
C1822       C  0.49754014  0.40360985  0.87531905    -0.14700
C1823       C  0.97269815  0.38765149  0.88840775     0.35900
C1824       C  0.97395902  0.35550979  0.88681536    -0.26100
C1825       C  0.99904084  0.34055787  0.87303960    -0.15300
C1826       C  0.52712357  0.35637204  0.86755234     0.37000
N1827       N  0.55578311  0.34202011  0.85978279    -0.89600
H1828       H  0.54607034  0.40170669  0.86439755     0.18100
H1829       H  0.95554822  0.34219297  0.89705033     0.18100
N1830       N  0.94737463  0.40227535  0.90361908    -0.88600
H1831       H  0.06391506  0.35961601  0.83631527     0.35500
H1832       H  0.03914862  0.33237405  0.82499180     0.40600
H1833       H  0.43433025  0.39221522  0.90835383     0.40200
H1834       H  0.42610262  0.39334797  0.87035888     0.35100
C1835       C  0.97647992  0.14018133  0.87853515    -0.26700
C1836       C  0.00476367  0.15564905  0.87642988    -0.14700
C1837       C  0.53106150  0.13569705  0.88200682     0.35900
C1838       C  0.52930637  0.10359615  0.88238292    -0.26100
C1839       C  0.50161848  0.08818032  0.87618863    -0.15300
C1840       C  0.97473421  0.10798565  0.87823983     0.37000
N1841       N  0.94518416  0.09330425  0.88056581    -0.89600
H1842       H  0.95535205  0.15326310  0.88058651     0.18100
H1843       H  0.54991690  0.09061111  0.88779399     0.18100
N1844       N  0.56006857  0.14945835  0.88933042    -0.88600
H1845       H  0.92747151  0.10952490  0.88046641     0.35500
H1846       H  0.94423141  0.08240800  0.90203756     0.40600
H1847       H  0.55714871  0.16410636  0.90819319     0.40200
H1848       H  0.56772985  0.16205241  0.87040079     0.35100
C1849       C  0.76944020  0.22716306  0.23216473    -0.26700
C1850       C  0.74858617  0.24612921  0.21634758    -0.14700
C1851       C  0.72702895  0.26365756  0.23318495     0.35900
C1852       C  0.72725029  0.26232474  0.26548171    -0.26100
C1853       C  0.74789995  0.24316172  0.28130933    -0.15300
C1854       C  0.76891185  0.22497716  0.26445688     0.37000
N1855       N  0.79029024  0.20516543  0.28013674    -0.89600
H1856       H  0.78580326  0.21351765  0.21921256     0.18100
H1857       H  0.71105292  0.27618037  0.27842473     0.18100
N1858       N  0.70531260  0.28309280  0.21747954    -0.88600
H1859       H  0.80531070  0.19482944  0.26446357     0.35500
H1860       H  0.77766161  0.18725732  0.29000959     0.40600
H1861       H  0.71773444  0.30033507  0.20623577     0.40200
H1862       H  0.69085912  0.29416646  0.23319290     0.35100
C1863       C  0.72501502  0.24310220  0.01481853    -0.26700
C1864       C  0.75190893  0.25098269  0.03095246    -0.14700
C1865       C  0.77828442  0.25992335  0.01417168     0.35900
C1866       C  0.77721055  0.26036881  0.98190677    -0.26100
C1867       C  0.75034810  0.25251890  0.96576846    -0.15300
C1868       C  0.72395449  0.24352299  0.98251153     0.37000
N1869       N  0.69630727  0.23439543  0.96683299    -0.89600
H1870       H  0.70474764  0.23605323  0.02746685     0.18100
H1871       H  0.79750871  0.26737958  0.96928592     0.18100
N1872       N  0.80597358  0.26898613  0.02979637    -0.88600
H1873       H  0.67886412  0.22925867  0.98255308     0.35500
H1874       H  0.70109980  0.21394491  0.95510924     0.40600
H1875       H  0.80124578  0.28944268  0.04150177     0.40200
H1876       H  0.82342898  0.27406254  0.01404251     0.35100
C1877       C  0.77007349  0.48443926  0.23442523    -0.26700
C1878       C  0.74684658  0.00053358  0.22011015    -0.14700
C1879       C  0.72294417  0.01505734  0.23672955     0.35900
C1880       C  0.72407510  0.01540524  0.26906173    -0.26100
C1881       C  0.74608307  0.49905698  0.28270510    -0.15300
C1882       C  0.76981437  0.48382256  0.26671542     0.37000
N1883       N  0.79372497  0.46811780  0.28337463    -0.89600
H1884       H  0.78826836  0.47264002  0.22212545     0.18100
H1885       H  0.70580906  0.02645298  0.28195347     0.18100
N1886       N  0.69790944  0.02972467  0.22081076    -0.88600
H1887       H  0.80593096  0.48462641  0.29587374     0.35500
H1888       H  0.80942282  0.45802822  0.26820669     0.40600
H1889       H  0.70698173  0.04823662  0.20845032     0.40200
H1890       H  0.68216617  0.03901989  0.23645117     0.35100
C1891       C  0.72685467  0.50415809  0.98229839    -0.26700
C1892       C  0.75491122  0.00156025  0.96997493    -0.14700
C1893       C  0.77825301  0.98688756  0.98722202     0.35900
C1894       C  0.77633891  0.98659231  0.01951211    -0.26100
C1895       C  0.75132304  0.00006333  0.03493488    -0.15300
C1896       C  0.72471315  0.50413207  0.01451591     0.37000
N1897       N  0.69524646  0.50846844  0.02892548    -0.89600
H1898       H  0.70606437  0.50716590  0.96889107     0.18100
H1899       H  0.79415740  0.97516971  0.03270643     0.18100
N1900       N  0.80337033  0.97169010  0.97196486    -0.88600
H1901       H  0.67774588  0.50981565  0.01249077     0.35500
H1902       H  0.69569648  0.52982641  0.03997157     0.40600
H1903       H  0.79422550  0.95325079  0.95955863     0.40200
H1904       H  0.81859946  0.96219760  0.98799827     0.35100
C1905       C  0.77691555  0.39056701  0.13016989    -0.26700
C1906       C  0.74910537  0.40612429  0.12462198    -0.14700
C1907       C  0.72223793  0.38885382  0.11865356     0.35900
C1908       C  0.72372505  0.35661773  0.11918308    -0.26100
C1909       C  0.75153947  0.34102529  0.12461106    -0.15300
C1910       C  0.77860092  0.35832251  0.12985460     0.37000
N1911       N  0.80767292  0.34334752  0.13507459    -0.89600
H1912       H  0.79764716  0.40362979  0.13462429     0.18100
H1913       H  0.70295819  0.34359955  0.11477657     0.18100
N1914       N  0.69359523  0.40391550  0.11166515    -0.88600
H1915       H  0.82466708  0.35940923  0.14064117     0.35500
H1916       H  0.81450143  0.33345159  0.11426621     0.40600
H1917       H  0.67595793  0.38783523  0.10880268     0.40200
H1918       H  0.69621968  0.41490976  0.09044662     0.35100
C1919       C  0.77556249  0.10642434  0.12902339    -0.26700
C1920       C  0.74741088  0.09100383  0.12568477    -0.14700
C1921       C  0.72016296  0.10832215  0.12145975     0.35900
C1922       C  0.72183176  0.14053933  0.12091816    -0.26100
C1923       C  0.75002489  0.15593375  0.12418773    -0.15300
C1924       C  0.77724360  0.13857498  0.12852341     0.37000
N1925       N  0.80649747  0.15343156  0.13272239    -0.89600
H1926       H  0.79652443  0.09334947  0.13245206     0.18100
H1927       H  0.70090045  0.15368226  0.11756569     0.18100
N1928       N  0.69093028  0.09336871  0.11754716    -0.88600
H1929       H  0.82426647  0.13722874  0.13416274     0.35500
H1930       H  0.80588284  0.16464177  0.15395657     0.40600
H1931       H  0.69143252  0.08202143  0.09637647     0.40200
H1932       H  0.67314795  0.10954495  0.11611408     0.35100
C1933       C  0.98014244  0.22807637  0.26539113    -0.26700
C1934       C  0.49544666  0.25307997  0.28176717    -0.14700
C1935       C  0.51661516  0.27096845  0.26489656     0.35900
C1936       C  0.51631859  0.26954149  0.23265847    -0.26100
C1937       C  0.49466701  0.25147882  0.21700669    -0.15300
C1938       C  0.98036667  0.22890266  0.23311612     0.37000
N1939       N  0.96046956  0.20900791  0.21577903    -0.89600
H1940       H  0.96440475  0.21284624  0.27727814     0.18100
H1941       H  0.53278262  0.28296614  0.21963470     0.18100
N1942       N  0.53903421  0.28958418  0.28048343    -0.88600
H1943       H  0.94702849  0.19557749  0.23047914     0.35500
H1944       H  0.97443419  0.19375747  0.20345033     0.40600
H1945       H  0.52732277  0.30774173  0.29103192     0.40200
H1946       H  0.55411465  0.29966647  0.26470936     0.35100
C1947       C  0.52562995  0.23825054  0.98350935    -0.26700
C1948       C  0.49957587  0.24742556  0.96675949    -0.14700
C1949       C  0.97341964  0.25523474  0.98487279     0.35900
C1950       C  0.97469638  0.25516491  0.01715563    -0.26100
C1951       C  0.49910009  0.24769616  0.03195621    -0.15300
C1952       C  0.52562890  0.23792833  0.01581261     0.37000
N1953       N  0.55234525  0.22720249  0.03213628    -0.89600
H1954       H  0.54601860  0.23069476  0.97132733     0.18100
H1955       H  0.95352749  0.25785582  0.03001811     0.18100
N1956       N  0.94430800  0.25908167  0.96962944    -0.88600
H1957       H  0.57000345  0.22146633  0.01686100     0.35500
H1958       H  0.54625804  0.20683366  0.04339896     0.40600
H1959       H  0.94474778  0.28036518  0.95845844     0.40200
H1960       H  0.92634344  0.26023491  0.98559818     0.35100
C1961       C  0.50869915  0.47483619  0.23452538    -0.26700
C1962       C  0.99785482  0.50307291  0.21783044    -0.14700
C1963       C  0.02008367  0.02250167  0.23443351     0.35900
C1964       C  0.01846722  0.02118660  0.26649902    -0.26100
C1965       C  0.99756917  0.50132184  0.28268903    -0.15300
C1966       C  0.50858945  0.47360905  0.26676192     0.37000
N1967       N  0.52421536  0.44898177  0.28213460    -0.89600
H1968       H  0.52044509  0.45696617  0.22168928     0.18100
H1969       H  0.03403592  0.03519568  0.27999988     0.18100
N1970       N  0.04169143  0.04322346  0.22068146    -0.88600
H1971       H  0.54725634  0.44922976  0.27525718     0.35500
H1972       H  0.51451246  0.42824036  0.27481151     0.40600
H1973       H  0.02972908  0.05821539  0.20611251     0.40200
H1974       H  0.05742155  0.03055317  0.20769786     0.35100
C1975       C  0.52665447  0.99031710  0.98483132    -0.26700
C1976       C  0.99640655  0.50076752  0.96769076    -0.14700
C1977       C  0.97000569  0.50872213  0.98492815     0.35900
C1978       C  0.97166927  0.50916141  0.01716435    -0.26100
C1979       C  0.99912184  0.50216941  0.03275406    -0.15300
C1980       C  0.52744246  0.99130956  0.01710830     0.37000
N1981       N  0.55546697  0.98391719  0.03307395    -0.89600
H1982       H  0.54729113  0.98388297  0.97242591     0.18100
H1983       H  0.95135256  0.51536082  0.03019774     0.18100
N1984       N  0.94167559  0.51667990  0.96978482    -0.88600
H1985       H  0.57333245  0.97968925  0.01753274     0.35500
H1986       H  0.55183909  0.96332533  0.04495153     0.40600
H1987       H  0.94535074  0.53720766  0.95782006     0.40200
H1988       H  0.92434358  0.52121077  0.98584585     0.35100
C1989       C  0.97388248  0.36076519  0.11978143    -0.26700
C1990       C  0.00183938  0.34528866  0.12479345    -0.14700
C1991       C  0.52386475  0.36005657  0.12034595     0.35900
C1992       C  0.52248209  0.39223243  0.12143103    -0.26100
C1993       C  0.49443150  0.40787346  0.12512827    -0.15300
C1994       C  0.97238805  0.39295910  0.11938398     0.37000
N1995       N  0.94345294  0.40771811  0.11366431    -0.89600
H1996       H  0.95290695  0.34786228  0.11602119     0.18100
H1997       H  0.54362034  0.40517436  0.11898759     0.18100
N1998       N  0.55304125  0.34503382  0.11592158    -0.88600
H1999       H  0.92788096  0.40047437  0.13048314     0.35500
H2000       H  0.93532960  0.40028865  0.09230806     0.40600
H2001       H  0.55262971  0.33477331  0.09422030     0.40200
H2002       H  0.57097679  0.36106661  0.11545038     0.35100
C2003       C  0.52459644  0.14225224  0.12057906    -0.26700
C2004       C  0.00108404  0.16014047  0.12567477    -0.14700
C2005       C  0.97357176  0.14311895  0.12898814     0.35900
C2006       C  0.97462608  0.11094431  0.12731816    -0.26100
C2007       C  0.49889652  0.09292497  0.12596850    -0.15300
C2008       C  0.52589316  0.11000617  0.11996408     0.37000
N2009       N  0.55437037  0.09475001  0.11272723    -0.89600
H2010       H  0.54530469  0.15526441  0.11584677     0.18100
H2011       H  0.95346629  0.09811066  0.13012397     0.18100
N2012       N  0.94463821  0.15835420  0.13420941    -0.88600
H2013       H  0.57207428  0.11072665  0.10966942     0.35500
H2014       H  0.55147577  0.08374153  0.09156731     0.40600
H2015       H  0.94558226  0.16836569  0.15600411     0.40200
H2016       H  0.92656431  0.14248083  0.13482597     0.35100
O2017       O  0.52265669  0.50146174  0.08366507    -0.72100
O2018       O  0.52085188  0.99961522  0.17077349    -0.72300
O2019       O  0.52150323  0.95650895  0.12659427    -0.72200
O2020       O  0.52271574  0.54311955  0.12915052    -0.72200
O2021       O  0.97358949  0.54646533  0.12448588    -0.72200
O2022       O  0.97485214  0.95968386  0.12532141    -0.72200
O2023       O  0.97335828  0.50373925  0.16882741    -0.72100
O2024       O  0.97593718  0.00203786  0.08060993    -0.72300
V2025       V  0.52143180  0.00001991  0.12710113     1.35200
V2026       V  0.97671340  0.00313865  0.12422728     1.35200
C2027       C  0.00091944  0.00007514  0.06582835     0.77100
C2028       C  0.00038773  0.00453593  0.18277399     0.77200
C2029       C  0.49631533  0.94206769  0.12529721     0.77100
C2030       C  0.49831771  0.55885217  0.12757953     0.77000
O2031       O  0.97385337  0.75114875  0.17017546    -0.72100
O2032       O  0.97277625  0.75507205  0.08272016    -0.72300
O2033       O  0.97216591  0.70986194  0.12479246    -0.72200
O2034       O  0.97432761  0.79680254  0.12843720    -0.72200
O2035       O  0.52296621  0.79393073  0.12170328    -0.72200
O2036       O  0.52267421  0.70684658  0.12515017    -0.72200
O2037       O  0.52359006  0.74885908  0.07986331    -0.72100
O2038       O  0.52233380  0.75215194  0.16675627    -0.72300
V2039       V  0.97422801  0.75329664  0.12649852     1.35200
V2040       V  0.52191841  0.75044498  0.12329926     1.35200
C2041       C  0.49721883  0.75134995  0.18129134     0.77100
C2042       C  0.49906804  0.74926132  0.06429912     0.77200
C2043       C  0.99675497  0.69438122  0.12499818     0.77100
C2044       C  0.99957989  0.81119609  0.12831780     0.77000
O2045       O  0.72449002  0.95457946  0.12709198    -0.72100
O2046       O  0.72501530  0.54263642  0.12407380    -0.72300
O2047       O  0.72480119  0.99840210  0.08323384    -0.72200
O2048       O  0.72331475  0.49982865  0.16821526    -0.72200
O2049       O  0.77243628  0.99963011  0.17170342    -0.72200
O2050       O  0.77545063  0.49931337  0.08219555    -0.72200
O2051       O  0.77479674  0.54200524  0.12657049    -0.72100
O2052       O  0.77437147  0.95553475  0.12882094    -0.72300
V2053       V  0.72459622  0.99822820  0.12696253     1.35200
V2054       V  0.77342374  0.49849544  0.12588002     1.35200
C2055       C  0.74975634  0.94016501  0.12818525     0.77100
C2056       C  0.75007125  0.55728930  0.12526885     0.77200
C2057       C  0.75083800  0.49929758  0.06662648     0.77100
C2058       C  0.74782172  0.49910484  0.18382023     0.77000
O2059       O  0.72998455  0.74946518  0.16843795    -0.72100
O2060       O  0.73199894  0.74911286  0.08127900    -0.72300
O2061       O  0.73080190  0.70568220  0.12523062    -0.72200
O2062       O  0.73091754  0.79252802  0.12471866    -0.72200
O2063       O  0.78076537  0.79257954  0.12753300    -0.72200
O2064       O  0.78066042  0.70527065  0.12443804    -0.72200
O2065       O  0.78182606  0.75068101  0.08234770    -0.72100
O2066       O  0.77992449  0.74703140  0.16950491    -0.72300
V2067       V  0.73191024  0.74914203  0.12489699     1.35200
V2068       V  0.77987109  0.74890693  0.12591994     1.35200
C2069       C  0.75462604  0.74797779  0.18377151     0.77100
C2070       C  0.75723167  0.75058387  0.06684346     0.77200
C2071       C  0.75561783  0.69051883  0.12506586     0.77100
C2072       C  0.75574681  0.80744523  0.12631032     0.77000
O2073       O  0.52238648  0.49444389  0.83248838    -0.72100
O2074       O  0.52549334  0.99581237  0.91992154    -0.72300
O2075       O  0.52628748  0.95194207  0.87643713    -0.72200
O2076       O  0.52258836  0.53938721  0.87455989    -0.72200
O2077       O  0.97037672  0.54077778  0.87507824    -0.72200
O2078       O  0.97510243  0.95471479  0.87134697    -0.72200
O2079       O  0.97098638  0.49744005  0.91879761    -0.72100
O2080       O  0.97689375  0.00031805  0.82956056    -0.72300
V2081       V  0.52543028  0.99548957  0.87629473     1.35200
V2082       V  0.97682971  0.99821569  0.87312747     1.35200
C2083       C  0.00216016  0.99873057  0.81529802     0.77100
C2084       C  0.99941208  0.99718793  0.93224761     0.77200
C2085       C  0.50137852  0.93706987  0.87470261     0.77100
C2086       C  0.49780806  0.55456728  0.87542004     0.77000
O2087       O  0.97211213  0.74929898  0.91784556    -0.72100
O2088       O  0.97557510  0.74592471  0.83056238    -0.72300
O2089       O  0.97339849  0.70399013  0.87548430    -0.72200
O2090       O  0.97451133  0.79126768  0.87255401    -0.72200
O2091       O  0.52922367  0.78883779  0.87401960    -0.72200
O2092       O  0.52854956  0.70179463  0.87302342    -0.72200
O2093       O  0.53152276  0.74596249  0.82997052    -0.72100
O2094       O  0.52638346  0.74503729  0.91702512    -0.72300
V2095       V  0.97480778  0.74759940  0.87418753     1.35200
V2096       V  0.52798864  0.74536466  0.87347750     1.35200
C2097       C  0.50073866  0.74708871  0.93064354     0.77100
C2098       C  0.50738340  0.74428244  0.81389434     0.77200
C2099       C  0.99826332  0.68884514  0.87475055     0.77100
C2100       C  0.99963944  0.80582054  0.87452597     0.77000
O2101       O  0.73131362  0.96025107  0.87702744    -0.72100
O2102       O  0.73217641  0.54805542  0.87737115    -0.72300
O2103       O  0.73054570  0.00382845  0.83377288    -0.72200
O2104       O  0.73109690  0.50153435  0.91782966    -0.72200
O2105       O  0.78055061  0.00244514  0.92105806    -0.72200
O2106       O  0.78121555  0.50303086  0.83089344    -0.72200
O2107       O  0.78190332  0.54711858  0.87409518    -0.72100
O2108       O  0.78116000  0.96094319  0.87542280    -0.72300
V2109       V  0.73162653  0.00385358  0.87731164     1.35200
V2110       V  0.78018064  0.50363853  0.87454132     1.35200
C2111       C  0.75647990  0.94567909  0.87550767     0.77100
C2112       C  0.75738345  0.56254801  0.87633497     0.77200
C2113       C  0.75635408  0.50530280  0.81596873     0.77100
C2114       C  0.75589658  0.50222165  0.93301914     0.77000
O2115       O  0.73069411  0.75472148  0.91823493    -0.72100
O2116       O  0.73074710  0.75348936  0.83101652    -0.72300
O2117       O  0.73080732  0.71060350  0.87550102    -0.72200
O2118       O  0.73054472  0.79762044  0.87384369    -0.72200
O2119       O  0.78039106  0.79770185  0.87215688    -0.72200
O2120       O  0.78066276  0.71067398  0.87737710    -0.72200
O2121       O  0.78065517  0.75144638  0.83118791    -0.72100
O2122       O  0.78051470  0.75649771  0.91839734    -0.72300
V2123       V  0.73166402  0.75413235  0.87465086     1.35200
V2124       V  0.77961621  0.75415025  0.87476554     1.35200
C2125       C  0.75554885  0.75543635  0.93331420     0.77100
C2126       C  0.75572629  0.75174436  0.81623111     0.77200
C2127       C  0.75573797  0.69572836  0.87715301     0.77100
C2128       C  0.75536404  0.81259232  0.87235680     0.77000
O2129       O  0.49699898  0.52520328  0.41908970    -0.72100
O2130       O  0.99492159  0.52582691  0.33148983    -0.72300
O2131       O  0.95109138  0.52499696  0.37485039    -0.72200
O2132       O  0.53838890  0.52406161  0.37376663    -0.72200
O2133       O  0.54154841  0.97259574  0.37474488    -0.72200
O2134       O  0.95422729  0.97428370  0.37506245    -0.72200
O2135       O  0.49620594  0.97166699  0.33270443    -0.72100
O2136       O  0.99971516  0.97410087  0.41681919    -0.72300
V2137       V  0.99474672  0.52484135  0.37505739     1.35200
V2138       V  0.99774868  0.97565184  0.37307739     1.35200
C2139       C  0.99859421  0.99892814  0.43201249     0.77100
C2140       C  0.99689306  0.00077291  0.31505123     0.77200
C2141       C  0.93671798  0.49974315  0.37387069     0.77100
C2142       C  0.55352235  0.49930219  0.37603934     0.77000
O2143       O  0.00260604  0.72223592  0.41907802    -0.72100
O2144       O  0.49938392  0.72407454  0.32831320    -0.72300
O2145       O  0.54408516  0.72289445  0.37105683    -0.72200
O2146       O  0.95862815  0.72056209  0.37590195    -0.72200
O2147       O  0.95650424  0.77037384  0.37457882    -0.72200
O2148       O  0.54480480  0.77273111  0.37280198    -0.72200
O2149       O  0.00123170  0.77280025  0.33227307    -0.72100
O2150       O  0.50094842  0.77325667  0.41597407    -0.72300
V2151       V  0.50056429  0.72459214  0.37206458     1.35200
V2152       V  0.50121337  0.77253615  0.37244368     1.35200
C2153       C  0.50146688  0.74830657  0.43090143     0.77100
C2154       C  0.50046199  0.74928344  0.31378128     0.77200
C2155       C  0.55939945  0.74757362  0.37176821     0.77100
C2156       C  0.94264566  0.74479257  0.37496736     0.77000
O2157       O  0.70459952  0.97426883  0.37542221    -0.72100
O2158       O  0.79157342  0.97643903  0.37840609    -0.72300
O2159       O  0.74665328  0.97479227  0.42058045    -0.72200
O2160       O  0.74965509  0.97594201  0.33344134    -0.72200
O2161       O  0.74392351  0.52361325  0.33155749    -0.72200
O2162       O  0.74519858  0.52252481  0.41882301    -0.72200
O2163       O  0.78810616  0.52420558  0.37481639    -0.72100
O2164       O  0.70116238  0.52214710  0.37589426    -0.72300
V2165       V  0.74806897  0.97633732  0.37700155     1.35200
V2166       V  0.74460995  0.52214285  0.37522383     1.35200
C2167       C  0.68671068  0.49696267  0.37608262     0.77100
C2168       C  0.80368845  0.49967825  0.37459468     0.77200
C2169       C  0.74678784  0.99949628  0.43590546     0.77100
C2170       C  0.74802391  0.00101020  0.31881695     0.77000
O2171       O  0.70763211  0.71790894  0.37346254    -0.72100
O2172       O  0.79492960  0.71834167  0.37579762    -0.72300
O2173       O  0.75023188  0.71803589  0.41826272    -0.72200
O2174       O  0.75267301  0.71801446  0.33106408    -0.72200
O2175       O  0.74945038  0.76785682  0.33103315    -0.72200
O2176       O  0.75245624  0.76788361  0.41821519    -0.72200
O2177       O  0.79426090  0.76814776  0.37319329    -0.72100
O2178       O  0.70745471  0.76772384  0.37602915    -0.72300
V2179       V  0.75129847  0.71899184  0.37465353     1.35200
V2180       V  0.75089306  0.76693763  0.37462163     1.35200
C2181       C  0.69258650  0.74281085  0.37475114     0.77100
C2182       C  0.80952813  0.74346288  0.37451117     0.77200
C2183       C  0.75158200  0.74294320  0.43319582     0.77100
C2184       C  0.75138751  0.74294350  0.31616116     0.77000
O2185       O  0.00152681  0.97633608  0.66842204    -0.72100
O2186       O  0.49958000  0.97444787  0.58409464    -0.72300
O2187       O  0.54411566  0.97628884  0.62706133    -0.72200
O2188       O  0.95739035  0.97364714  0.62531215    -0.72200
O2189       O  0.95498699  0.52397444  0.62542404    -0.72200
O2190       O  0.54310243  0.52594795  0.62644633    -0.72200
O2191       O  0.99860906  0.52504857  0.58210187    -0.72100
O2192       O  0.49924748  0.52583841  0.67038374    -0.72300
V2193       V  0.50046098  0.97672205  0.62754847     1.35200
V2194       V  0.49955732  0.52538132  0.62659911     1.35200
C2195       C  0.49937536  0.50059249  0.68490411     0.77100
C2196       C  0.49858827  0.50169403  0.56786245     0.77200
C2197       C  0.55864269  0.00147252  0.62861985     0.77100
C2198       C  0.94163461  0.99813668  0.62434780     0.77000
O2199       O  0.50290021  0.72729407  0.57919073    -0.72100
O2200       O  0.00307116  0.72690094  0.66928469    -0.72300
O2201       O  0.96014006  0.72599608  0.62520932    -0.72200
O2202       O  0.54678956  0.72553987  0.62236746    -0.72200
O2203       O  0.54752044  0.77539311  0.62163044    -0.72200
O2204       O  0.95895313  0.77591103  0.62723735    -0.72200
O2205       O  0.50656973  0.77485281  0.66753369    -0.72100
O2206       O  0.00088592  0.77656940  0.58199873    -0.72300
V2207       V  0.00361397  0.72783639  0.62574175     1.35200
V2208       V  0.00253898  0.77580932  0.62567717     1.35200
C2209       C  0.00197948  0.75153347  0.56719927     0.77100
C2210       C  0.00371117  0.75182628  0.68421588     0.77200
C2211       C  0.94470094  0.75061622  0.62615574     0.77100
C2212       C  0.56210390  0.75027391  0.62147469     0.77000
O2213       O  0.70656697  0.97546945  0.62900656    -0.72100
O2214       O  0.79355144  0.97473335  0.62731652    -0.72300
O2215       O  0.75055707  0.97547048  0.67176732    -0.72200
O2216       O  0.74904129  0.97511860  0.58436789    -0.72200
O2217       O  0.75082269  0.52460145  0.58183876    -0.72200
O2218       O  0.74695551  0.52529150  0.66867776    -0.72200
O2219       O  0.79246066  0.52523195  0.62721707    -0.72100
O2220       O  0.70546231  0.52423691  0.62329954    -0.72300
V2221       V  0.74998487  0.97614116  0.62808970     1.35200
V2222       V  0.74896860  0.52389540  0.62526970     1.35200
C2223       C  0.69092052  0.49911595  0.62490914     0.77100
C2224       C  0.80775412  0.50051491  0.62583698     0.77200
C2225       C  0.75269972  0.00056410  0.68628489     0.77100
C2226       C  0.74679706  0.00004262  0.56942049     0.77000
O2227       O  0.75387059  0.72181739  0.58188110    -0.72100
O2228       O  0.75518153  0.72366895  0.66914526    -0.72300
O2229       O  0.71078847  0.72207017  0.62593217    -0.72200
O2230       O  0.79793842  0.72351555  0.62494415    -0.72200
O2231       O  0.79686158  0.77344366  0.62691819    -0.72200
O2232       O  0.70992452  0.77177147  0.62200624    -0.72200
O2233       O  0.75100787  0.77347531  0.66802601    -0.72100
O2234       O  0.75578924  0.77167843  0.58086744    -0.72300
V2235       V  0.75438549  0.72370485  0.62547486     1.35200
V2236       V  0.75341562  0.77165159  0.62446702     1.35200
C2237       C  0.75521079  0.74643533  0.56642385     0.77100
C2238       C  0.75300088  0.74888743  0.68345530     0.77200
C2239       C  0.69539719  0.74663915  0.62350949     0.77100
C2240       C  0.81223082  0.74875978  0.62645709     0.77000
C2241       C  0.89455043  0.77297934  0.64163560    -0.26700
C2242       C  0.91082562  0.74984887  0.62607773    -0.14700
C2243       C  0.89458450  0.72621001  0.61090119     0.35900
C2244       C  0.86235846  0.72607416  0.61189237    -0.26100
C2245       C  0.84608152  0.74930153  0.62725141    -0.15300
C2246       C  0.86229131  0.77277027  0.64270338     0.37000
N2247       N  0.84601683  0.79585473  0.65994086    -0.89600
H2248       H  0.90707501  0.79090380  0.65356234     0.18100
H2249       H  0.84984900  0.70815435  0.59993992     0.18100
N2250       N  0.91079229  0.70287052  0.59394433    -0.88600
H2251       H  0.86138099  0.81141438  0.66987243     0.35500
H2252       H  0.83481546  0.78475189  0.67810762     0.40600
H2253       H  0.92184931  0.71367471  0.57553304     0.40200
H2254       H  0.89540199  0.68708043  0.58438130     0.35100
C2255       C  0.64617506  0.77301468  0.61159425    -0.26700
C2256       C  0.66129860  0.74645112  0.62219483    -0.14700
C2257       C  0.64337188  0.72091721  0.63161098     0.35900
C2258       C  0.61129206  0.72282221  0.63077868    -0.26100
C2259       C  0.59619248  0.74962781  0.62086234    -0.15300
C2260       C  0.61410901  0.77494571  0.61082458     0.37000
N2261       N  0.60067928  0.80275546  0.59921997    -0.89600
H2262       H  0.65936620  0.79267273  0.60380150     0.18100
H2263       H  0.59806123  0.70317167  0.63851500     0.18100
N2264       N  0.65679325  0.69295237  0.64279549    -0.88600
H2265       H  0.58820927  0.81342526  0.61679613     0.35500
H2266       H  0.58598459  0.79730470  0.58103616     0.40600
H2267       H  0.67082562  0.69804843  0.66165387     0.40200
H2268       H  0.66996289  0.68306294  0.62533223     0.35100
C2269       C  0.85844866  0.97444010  0.63754548    -0.26700
C2270       C  0.84180201  0.50058245  0.62593967    -0.14700
C2271       C  0.85896424  0.52817503  0.62489597     0.35900
C2272       C  0.89114288  0.52670256  0.62518044    -0.26100
C2273       C  0.90759538  0.99752258  0.62417924    -0.15300
C2274       C  0.89076791  0.97363173  0.63832294     0.37000
N2275       N  0.90644137  0.94915927  0.65417195    -0.89600
H2276       H  0.84556382  0.95630497  0.64876735     0.18100
H2277       H  0.90405705  0.54798211  0.62435175     0.18100
N2278       N  0.84389960  0.55762370  0.62332721    -0.88600
H2279       H  0.89064996  0.93335645  0.66312061     0.35500
H2280       H  0.91779568  0.95883155  0.67298377     0.40600
H2281       H  0.83342286  0.55922637  0.60175961     0.40200
H2282       H  0.85992557  0.57552321  0.62433608     0.35100
C2283       C  0.60846731  0.97380777  0.63183338    -0.26700
C2284       C  0.59264071  0.00194368  0.63102591    -0.14700
C2285       C  0.60895464  0.52715478  0.61670776     0.35900
C2286       C  0.64113237  0.52604075  0.61695789    -0.26100
C2287       C  0.65689810  0.49881264  0.62437617    -0.15300
C2288       C  0.64059565  0.97270849  0.63274974     0.37000
N2289       N  0.65560322  0.94334872  0.63363847    -0.89600
H2290       H  0.59589962  0.95229696  0.63147728     0.18100
H2291       H  0.65378631  0.54670041  0.61112658     0.18100
N2292       N  0.59383257  0.55520029  0.60817174    -0.88600
H2293       H  0.64884730  0.93087355  0.61424461     0.35500
H2294       H  0.64792552  0.93155891  0.65313027     0.40600
H2295       H  0.60105863  0.56118382  0.58603791     0.40200
H2296       H  0.60098775  0.57248274  0.62324966     0.35100
C2297       C  0.76408992  0.76929612  0.48236162    -0.26700
C2298       C  0.75260138  0.74313354  0.46730409    -0.14700
C2299       C  0.74283973  0.71767475  0.48503506     0.35900
C2300       C  0.74448681  0.71918602  0.51726368    -0.26100
C2301       C  0.75550020  0.74555500  0.53231393    -0.15300
C2302       C  0.76604048  0.77066202  0.51456668     0.37000
N2303       N  0.77917772  0.79724916  0.52917008    -0.89600
H2304       H  0.77216404  0.78865172  0.46890812     0.18100
H2305       H  0.73645593  0.69982228  0.53073032     0.18100
N2306       N  0.73083556  0.69055691  0.47042580    -0.88600
H2307       H  0.78549677  0.81371166  0.51285287     0.35500
H2308       H  0.79951100  0.79020511  0.53998890     0.40600
H2309       H  0.71013981  0.69666156  0.45974998     0.40200
H2310       H  0.72542177  0.67374355  0.48672765     0.35100
C2311       C  0.75501710  0.97364903  0.51930865    -0.26700
C2312       C  0.74530429  0.99999577  0.53527043    -0.14700
C2313       C  0.74593245  0.52712000  0.51545580     0.35900
C2314       C  0.74555543  0.52555110  0.48324477    -0.26100
C2315       C  0.74643271  0.99904803  0.47007880    -0.15300
C2316       C  0.75593637  0.97291683  0.48702455     0.37000
N2317       N  0.76719575  0.94593903  0.47153829    -0.89600
H2318       H  0.76277733  0.95369683  0.53209489     0.18100
H2319       H  0.74370816  0.54672748  0.47022522     0.18100
N2320       N  0.74351060  0.55654619  0.53038371    -0.88600
H2321       H  0.77265576  0.92862461  0.48732705     0.35500
H2322       H  0.78778083  0.95191351  0.46063996     0.40600
H2323       H  0.72222635  0.55727119  0.54148263     0.40200
H2324       H  0.74323554  0.57441475  0.51422554     0.35100
C2325       C  0.50138293  0.72365710  0.51518793    -0.26700
C2326       C  0.50170475  0.75223195  0.53038155    -0.14700
C2327       C  0.98942127  0.77560450  0.51563397     0.35900
C2328       C  0.98973319  0.77373952  0.48340954    -0.26100
C2329       C  0.50196282  0.74874478  0.46514974    -0.15300
C2330       C  0.50163730  0.72152941  0.48297771     0.37000
N2331       N  0.50145044  0.69176455  0.46855997    -0.89600
H2332       H  0.50116100  0.70260065  0.52851487     0.18100
H2333       H  0.98067734  0.79279480  0.47011168     0.18100
N2334       N  0.97681346  0.80234474  0.53049398    -0.88600
H2335       H  0.49942002  0.67428307  0.48496818     0.35500
H2336       H  0.52289773  0.68865772  0.45815098     0.40600
H2337       H  0.95703201  0.79542166  0.54228255     0.40200
H2338       H  0.96968799  0.81861300  0.51426433     0.35100
C2339       C  0.89223769  0.77132298  0.37620627    -0.26700
C2340       C  0.90861311  0.74354973  0.37444764    -0.14700
C2341       C  0.89215220  0.71550795  0.37245808     0.35900
C2342       C  0.85984551  0.71609470  0.37280519    -0.26100
C2343       C  0.84356691  0.74397470  0.37453880    -0.15300
C2344       C  0.86012048  0.77184250  0.37620771     0.37000
N2345       N  0.84457970  0.80087260  0.37815842    -0.89600
H2346       H  0.90437472  0.79302766  0.37774280     0.18100
H2347       H  0.84734778  0.69459939  0.37132760     0.18100
N2348       N  0.90804722  0.68656547  0.36996723    -0.88600
H2349       H  0.85152451  0.81440016  0.35953687     0.35500
H2350       H  0.85160557  0.81181543  0.39836376     0.40600
H2351       H  0.91881857  0.68609591  0.34848493     0.40200
H2352       H  0.89249734  0.66823580  0.37009836     0.35100
C2353       C  0.60846330  0.71842095  0.37649443    -0.26700
C2354       C  0.59350217  0.74674675  0.37183333    -0.14700
C2355       C  0.61134905  0.77363149  0.36797445     0.35900
C2356       C  0.64350587  0.77159336  0.36954455    -0.26100
C2357       C  0.65848327  0.74330910  0.37430726    -0.15300
C2358       C  0.64067063  0.71638343  0.37799149     0.37000
N2359       N  0.65513980  0.68713378  0.38359951    -0.89600
H2360       H  0.59496306  0.69771512  0.37956177     0.18100
H2361       H  0.65696942  0.79232197  0.36646973     0.18100
N2362       N  0.59696090  0.80288670  0.36214833    -0.88600
H2363       H  0.63875428  0.66959210  0.38480508     0.35500
H2364       H  0.66549882  0.68822247  0.40526712     0.40600
H2365       H  0.58668342  0.80169138  0.34044395     0.40200
H2366       H  0.61336242  0.82040735  0.36090461     0.35100
C2367       C  0.00249944  0.97098162  0.48220083    -0.26700
C2368       C  0.99921339  0.99892096  0.46621722    -0.14700
C2369       C  0.51056361  0.52646517  0.48502866     0.35900
C2370       C  0.51019191  0.52628136  0.51736906    -0.26100
C2371       C  0.49764357  0.50147433  0.53379838    -0.15300
C2372       C  0.00328227  0.97013080  0.51449296     0.37000
N2373       N  0.47999437  0.94444803  0.53380343    -0.89600
H2374       H  0.00466615  0.94957323  0.46963445     0.18100
H2375       H  0.52037184  0.54530351  0.52981217     0.18100
N2376       N  0.00229116  0.55814270  0.46971266    -0.88600
H2377       H  0.02807278  0.93152987  0.52217036     0.35500
H2378       H  0.98947386  0.92661616  0.52308469     0.40600
H2379       H  0.54390344  0.54282354  0.45726563     0.40200
H2380       H  0.53289247  0.56812475  0.48415164     0.35100
C2381       C  0.85565190  0.97635780  0.38896069    -0.26700
C2382       C  0.83766800  0.50044351  0.37435300    -0.14700
C2383       C  0.85466998  0.52395028  0.38911568     0.35900
C2384       C  0.88680529  0.52309781  0.38850083    -0.26100
C2385       C  0.90269684  0.49929369  0.37353899    -0.15300
C2386       C  0.88773444  0.97458966  0.38837683     0.37000
N2387       N  0.90195008  0.94799814  0.40174710    -0.89600
H2388       H  0.84290460  0.95747551  0.39907516     0.18100
H2389       H  0.89947311  0.54106803  0.40022314     0.18100
N2390       N  0.84013665  0.54844582  0.40571459    -0.88600
H2391       H  0.91722991  0.95513849  0.41884398     0.35500
H2392       H  0.91397860  0.93610518  0.38466602     0.40600
H2393       H  0.82553786  0.53894839  0.42228520     0.40200
H2394       H  0.82723138  0.56173739  0.39039876     0.35100
C2395       C  0.63700820  0.52512724  0.37413990    -0.26700
C2396       C  0.65264254  0.49695676  0.37711634    -0.14700
C2397       C  0.63846792  0.97101774  0.36804527     0.35900
C2398       C  0.60624387  0.97155047  0.36771160    -0.26100
C2399       C  0.58757917  0.49922970  0.37686748    -0.15300
C2400       C  0.60485443  0.52656687  0.37427228     0.37000
N2401       N  0.59003596  0.55593772  0.37185190    -0.89600
H2402       H  0.64974985  0.54638313  0.37157812     0.18100
H2403       H  0.59401084  0.95060437  0.36202775     0.18100
N2404       N  0.65422303  0.94298609  0.36073454    -0.88600
H2405       H  0.59723775  0.56636258  0.35142778     0.35500
H2406       H  0.59743495  0.56958939  0.39019261     0.40600
H2407       H  0.64749524  0.93613543  0.33871433     0.40200
H2408       H  0.64711734  0.92608387  0.37629697     0.35100
C2409       C  0.73482501  0.76955138  0.76627098    -0.26700
C2410       C  0.75555721  0.75062067  0.78227437    -0.14700
C2411       C  0.77515916  0.73075510  0.76551274     0.35900
C2412       C  0.77347342  0.73015444  0.73339132    -0.26100
C2413       C  0.75320674  0.74957258  0.71739444    -0.15300
C2414       C  0.73366899  0.76949660  0.73397691     0.37000
N2415       N  0.71246854  0.78926505  0.71799939    -0.89600
H2416       H  0.71970463  0.78472080  0.77904163     0.18100
H2417       H  0.78855342  0.71479710  0.72078855     0.18100
N2418       N  0.79639698  0.71039174  0.78042668    -0.88600
H2419       H  0.69987142  0.80257852  0.73356506     0.35500
H2420       H  0.69663212  0.77523590  0.70658929     0.40600
H2421       H  0.78425326  0.69664553  0.79595382     0.40200
H2422       H  0.81248901  0.72350220  0.79251116     0.35100
C2423       C  0.73095676  0.51888479  0.76666177    -0.26700
C2424       C  0.75503129  0.00464558  0.78478024    -0.14700
C2425       C  0.77893716  0.01784025  0.76716619     0.35900
C2426       C  0.77770431  0.01608055  0.73493707    -0.26100
C2427       C  0.75335988  0.00114125  0.72006674    -0.15300
C2428       C  0.72823688  0.51758416  0.73454675     0.37000
N2429       N  0.70282019  0.53225189  0.71922311    -0.89600
H2430       H  0.71355580  0.53092421  0.77984303     0.14900
H2431       H  0.79587743  0.02630612  0.72129250     0.18100
N2432       N  0.80409853  0.03334272  0.78195325    -0.88600
H2433       H  0.68854611  0.54329299  0.73510807     0.35500
H2434       H  0.68960386  0.51500980  0.70892477     0.40600
H2435       H  0.79514433  0.05275895  0.79298821     0.40200
H2436       H  0.81986554  0.04137715  0.76568841     0.35100
C2437       C  0.78340135  0.86236808  0.87377976    -0.26700
C2438       C  0.75530107  0.84665128  0.87148095    -0.14700
C2439       C  0.72777050  0.86382280  0.86922563     0.35900
C2440       C  0.72880633  0.89598681  0.87040485    -0.26100
C2441       C  0.75682464  0.91167562  0.87364054    -0.15300
C2442       C  0.78444285  0.89454362  0.87489967     0.37000
N2443       N  0.81364324  0.90951957  0.87774412    -0.89600
H2444       H  0.80482397  0.84966942  0.87526117     0.18100
H2445       H  0.70738839  0.90868619  0.86884422     0.18100
N2446       N  0.69862842  0.84887423  0.86571844    -0.88600
H2447       H  0.82727907  0.90303441  0.85903484     0.35500
H2448       H  0.82426953  0.90154250  0.89778778     0.40600
H2449       H  0.68852747  0.85677895  0.84534954     0.40200
H2450       H  0.68453633  0.85547484  0.88401557     0.35100
C2451       C  0.73016836  0.61237740  0.88301002    -0.26700
C2452       C  0.75791772  0.59664418  0.87770577    -0.14700
C2453       C  0.78527226  0.61382558  0.87345773     0.35900
C2454       C  0.78386725  0.64608743  0.87362781    -0.26100
C2455       C  0.75597751  0.66170963  0.87830307    -0.15300
C2456       C  0.72896916  0.64454589  0.88353261     0.37000
N2457       N  0.70023286  0.65953911  0.88961946    -0.89600
H2458       H  0.70906310  0.59968964  0.88678474     0.18100
H2459       H  0.80477124  0.65909057  0.86983570     0.18100
N2460       N  0.81432084  0.59872299  0.86853378    -0.88600
H2461       H  0.69227919  0.65207267  0.91103975     0.35500
H2462       H  0.68440921  0.65253190  0.87294663     0.40600
H2463       H  0.82052662  0.58810922  0.88919498     0.40200
H2464       H  0.83160533  0.61476720  0.86384567     0.35100
C2465       C  0.52679923  0.76584230  0.76479738    -0.26700
C2466       C  0.50891793  0.74384261  0.78013849    -0.14700
C2467       C  0.98731009  0.72509112  0.76534065     0.35900
C2468       C  0.98815620  0.72705125  0.73314206    -0.26100
C2469       C  0.50767786  0.74768629  0.71550096    -0.15300
C2470       C  0.52613616  0.76807776  0.73262060     0.37000
N2471       N  0.54457845  0.79073172  0.71742230    -0.89600
H2472       H  0.54059924  0.78194744  0.77786979     0.18100
H2473       H  0.97657018  0.70965669  0.71959320     0.18100
N2474       N  0.97156070  0.70012225  0.78023754    -0.88600
H2475       H  0.56755173  0.78693648  0.72347694     0.35500
H2476       H  0.53815932  0.81238937  0.72569903     0.40600
H2477       H  0.98802277  0.68708380  0.79199755     0.40200
H2478       H  0.96160913  0.68549822  0.76396614     0.35100
C2479       C  0.97711480  0.51758998  0.76721345    -0.26700
C2480       C  0.99604854  0.49657126  0.78282056    -0.14700
C2481       C  0.52344759  0.98045725  0.76589037     0.35900
C2482       C  0.52189266  0.98209101  0.73372846    -0.26100
C2483       C  0.49848823  0.49972156  0.71876979    -0.15300
C2484       C  0.97756471  0.51959397  0.73496911     0.37000
N2485       N  0.95808170  0.54127151  0.71927473    -0.89600
H2486       H  0.96230606  0.53281538  0.78028013     0.18100
H2487       H  0.53729611  0.96808507  0.71999558     0.18100
N2488       N  0.54477472  0.95974904  0.78047053    -0.88600
H2489       H  0.94535059  0.55421808  0.73505360     0.35500
H2490       H  0.94219058  0.52873203  0.70632759     0.40600
H2491       H  0.56154030  0.97307160  0.79131059     0.40200
H2492       H  0.55640593  0.94658234  0.76402277     0.35100
C2493       C  0.53014506  0.88762398  0.87440321    -0.26700
C2494       C  0.50171168  0.90300876  0.87344721    -0.14700
C2495       C  0.97142182  0.88823216  0.87202618     0.35900
C2496       C  0.97227339  0.85602516  0.87221820    -0.26100
C2497       C  0.00025827  0.83993586  0.87391470    -0.15300
C2498       C  0.53195534  0.85542769  0.87304811     0.37000
N2499       N  0.56154692  0.84059010  0.87392660    -0.89600
H2500       H  0.55123382  0.90075680  0.87608656     0.18100
H2501       H  0.95070652  0.84359564  0.87119144     0.18100
N2502       N  0.94224249  0.90353783  0.87063796    -0.88600
H2503       H  0.07527188  0.85709886  0.87973974     0.35500
H2504       H  0.06105080  0.83070653  0.85569378     0.40600
H2505       H  0.43182405  0.89190106  0.88840960     0.40200
H2506       H  0.43399379  0.89366851  0.84962135     0.35100
C2507       C  0.97055302  0.63939718  0.88127699    -0.26700
C2508       C  0.99792463  0.65478932  0.87370142    -0.14700
C2509       C  0.52741135  0.63498879  0.86264034     0.35900
C2510       C  0.52505110  0.60302654  0.86350568    -0.26100
C2511       C  0.49857982  0.58848586  0.87486145    -0.15300
C2512       C  0.96890568  0.60722115  0.88106012     0.37000
N2513       N  0.94064801  0.59248578  0.88939798    -0.89600
H2514       H  0.95026270  0.65235016  0.88781199     0.18100
H2515       H  0.54414096  0.58943660  0.85494637     0.18100
N2516       N  0.55488606  0.64800536  0.84995630    -0.88600
H2517       H  0.92347909  0.60012971  0.87437308     0.35500
H2518       H  0.93475136  0.59952170  0.91160328     0.40600
H2519       H  0.56623062  0.66052989  0.86703494     0.40200
H2520       H  0.54888416  0.66262485  0.83184640     0.35100
C2521       C  0.77157138  0.72501235  0.23305057    -0.26700
C2522       C  0.75384923  0.74706532  0.21755298    -0.14700
C2523       C  0.73527001  0.76760235  0.23438166     0.35900
C2524       C  0.73487430  0.76571528  0.26658778    -0.26100
C2525       C  0.75209027  0.74325447  0.28220447    -0.15300
C2526       C  0.77043134  0.72241516  0.26522655     0.37000
N2527       N  0.78845672  0.69930150  0.28061625    -0.89600
H2528       H  0.78573721  0.70924943  0.21990278     0.18100
H2529       H  0.72085154  0.78171586  0.27959003     0.18100
N2530       N  0.71724875  0.79053393  0.21871374    -0.88600
H2531       H  0.80223856  0.68742683  0.26488291     0.35500
H2532       H  0.77319885  0.68304601  0.28957539     0.40600
H2533       H  0.73247736  0.80554002  0.20772923     0.40200
H2534       H  0.70474251  0.80373892  0.23445790     0.35100
C2535       C  0.73020094  0.74601485  0.01671458    -0.26700
C2536       C  0.75757146  0.75218595  0.03269045    -0.14700
C2537       C  0.78433756  0.75973401  0.01576861     0.35900
C2538       C  0.78300012  0.76067177  0.98346366    -0.26100
C2539       C  0.75557258  0.75444980  0.96751175    -0.15300
C2540       C  0.72891195  0.74669075  0.98448620     0.37000
N2541       N  0.70068582  0.73891566  0.96910952    -0.89600
H2542       H  0.70964750  0.73998916  0.02942783     0.18100
H2543       H  0.80355094  0.76657059  0.97068357     0.18100
N2544       N  0.81272964  0.76665271  0.03124830    -0.88600
H2545       H  0.68309811  0.73484044  0.98497827     0.35500
H2546       H  0.70430694  0.71811932  0.95757132     0.40600
H2547       H  0.80956292  0.78726731  0.04320838     0.40200
H2548       H  0.83036099  0.77065834  0.01539443     0.35100
C2549       C  0.77144547  0.98707632  0.23618851    -0.26700
C2550       C  0.74688504  0.49968554  0.21785001    -0.14700
C2551       C  0.72324347  0.51519114  0.23400484     0.35900
C2552       C  0.72324629  0.51484446  0.26632764    -0.26100
C2553       C  0.74826976  0.00115255  0.28497258    -0.15300
C2554       C  0.77223430  0.98689792  0.26844618     0.37000
N2555       N  0.79775538  0.97316311  0.28444144    -0.89600
H2556       H  0.78992390  0.97615239  0.22350945     0.18100
H2557       H  0.70518853  0.52664982  0.27883661     0.18100
N2558       N  0.69957894  0.53153450  0.21762021    -0.88600
H2559       H  0.81427161  0.96525585  0.26884550     0.35500
H2560       H  0.78959013  0.95371387  0.29594345     0.40600
H2561       H  0.71004368  0.54981189  0.20603517     0.40200
H2562       H  0.68378774  0.54128969  0.23292879     0.35100
C2563       C  0.73005458  0.01524022  0.98544601    -0.26700
C2564       C  0.75528220  0.50113701  0.96721037    -0.14700
C2565       C  0.78226982  0.49753854  0.98504865     0.35900
C2566       C  0.78011012  0.49721282  0.01730644    -0.26100
C2567       C  0.75166655  0.50024139  0.03239798    -0.15300
C2568       C  0.72810305  0.01488926  0.01768199     0.37000
N2569       N  0.70297596  0.03011558  0.03290805    -0.89600
H2570       H  0.71225139  0.02674823  0.97230471     0.18100
H2571       H  0.80089112  0.49426189  0.03073580     0.18100
N2572       N  0.81179144  0.49404770  0.97054387    -0.88600
H2573       H  0.68778618  0.03967444  0.01686967     0.35500
H2574       H  0.71212503  0.04849974  0.04538362     0.40600
H2575       H  0.81179919  0.47286722  0.95915606     0.40200
H2576       H  0.82932527  0.49286995  0.98695608     0.35100
C2577       C  0.77825915  0.89154588  0.11924713    -0.26700
C2578       C  0.75090358  0.90619304  0.12835587    -0.14700
C2579       C  0.72541509  0.88821050  0.13731662     0.35900
C2580       C  0.72769356  0.85605410  0.13624072    -0.26100
C2581       C  0.75498152  0.84140699  0.12694384    -0.15300
C2582       C  0.78057534  0.85937113  0.11829349     0.37000
N2583       N  0.80859161  0.84503665  0.10804684    -0.89600
H2584       H  0.79782943  0.90527403  0.11224019     0.18100
H2585       H  0.70811253  0.84232510  0.14322505     0.18100
N2586       N  0.69752524  0.90251174  0.14795917    -0.88600
H2587       H  0.82532461  0.86159804  0.10313999     0.35500
H2588       H  0.80383105  0.83382878  0.08734175     0.40600
H2589       H  0.70259616  0.91376466  0.16857354     0.40200
H2590       H  0.68090374  0.88593992  0.15317117     0.35100
C2591       C  0.77937761  0.60620589  0.12865729    -0.26700
C2592       C  0.75083853  0.59141131  0.12523523    -0.14700
C2593       C  0.72389956  0.60946599  0.12228469     0.35900
C2594       C  0.72628741  0.64163409  0.12255969    -0.26100
C2595       C  0.75485405  0.65641652  0.12562948    -0.15300
C2596       C  0.78170218  0.63839518  0.12927298     0.37000
N2597       N  0.81118853  0.65261805  0.13393149    -0.89600
H2598       H  0.80010960  0.59259990  0.13130821     0.18100
H2599       H  0.70554328  0.65523993  0.11998933     0.18100
N2600       N  0.69418832  0.59532403  0.11897826    -0.88600
H2601       H  0.82860342  0.63605338  0.13515448     0.35500
H2602       H  0.81063915  0.66340931  0.15540837     0.40600
H2603       H  0.69357743  0.58484122  0.09737466     0.40200
H2604       H  0.67673179  0.61191793  0.11890966     0.35100
C2605       C  0.98318102  0.72763334  0.26715580    -0.26700
C2606       C  0.49992597  0.75003350  0.27987765    -0.14700
C2607       C  0.51931774  0.76998516  0.26311348     0.35900
C2608       C  0.51804891  0.76986277  0.23087406    -0.26100
C2609       C  0.49727490  0.75091701  0.21514329    -0.15300
C2610       C  0.98192020  0.72786726  0.23487666     0.37000
N2611       N  0.96293250  0.70618409  0.21872015    -0.89600
H2612       H  0.96938365  0.71125378  0.27989644     0.18100
H2613       H  0.53308032  0.78493611  0.21791476     0.18100
N2614       N  0.54099319  0.78944928  0.27874693    -0.88600
H2615       H  0.95111744  0.69210247  0.23421248     0.35500
H2616       H  0.97750743  0.69176802  0.20612788     0.40600
H2617       H  0.52852311  0.80673232  0.28987367     0.40200
H2618       H  0.55517796  0.80070823  0.26293920     0.35100
C2619       C  0.52721474  0.74787733  0.98123431    -0.26700
C2620       C  0.49940275  0.74831468  0.96481072    -0.14700
C2621       C  0.96940529  0.75954096  0.98466585     0.35900
C2622       C  0.97049720  0.76054421  0.01706473    -0.26100
C2623       C  0.49986087  0.74866611  0.03008485    -0.15300
C2624       C  0.52786959  0.74798519  0.01346449     0.37000
N2625       N  0.55700855  0.74745698  0.02912814    -0.89600
H2626       H  0.54882778  0.74716543  0.96886627     0.18100
H2627       H  0.95026185  0.76776841  0.02969194     0.18100
N2628       N  0.94176679  0.76849345  0.96883295    -0.88600
H2629       H  0.57521695  0.74914596  0.01350850     0.35500
H2630       H  0.55918666  0.72590762  0.03959463     0.40600
H2631       H  0.94659203  0.78864224  0.95665370     0.40200
H2632       H  0.92437744  0.77408527  0.98450384     0.35100
C2633       C  0.49128702  0.97119315  0.23348245    -0.26700
C2634       C  0.99989030  0.00428691  0.21664083    -0.14700
C2635       C  0.98005536  0.52446564  0.23467110     0.35900
C2636       C  0.98030756  0.52353165  0.26680175    -0.26100
C2637       C  0.99739626  0.00173747  0.28127517    -0.15300
C2638       C  0.49061355  0.96950271  0.26579326     0.37000
N2639       N  0.48676585  0.94017515  0.28058845    -0.89600
H2640       H  0.48945655  0.95035194  0.21993875     0.18100
H2641       H  0.96655893  0.54005477  0.27944836     0.18100
N2642       N  0.96228361  0.54796004  0.21982529    -0.88600
H2643       H  0.48587667  0.92249454  0.26436056     0.35500
H2644       H  0.46530785  0.94042365  0.29149452     0.40600
H2645       H  0.94541366  0.53755619  0.20633073     0.40200
H2646       H  0.97687918  0.56072937  0.20556596     0.35100
C2647       C  0.52450144  0.50508290  0.98449603    -0.26700
C2648       C  0.99897023  0.99731311  0.96643831    -0.14700
C2649       C  0.97150641  0.00092901  0.98353857     0.35900
C2650       C  0.97282780  0.00124277  0.01582764    -0.26100
C2651       C  0.00088650  0.99824503  0.03165548    -0.15300
C2652       C  0.52544550  0.50668265  0.01673293     0.37000
N2653       N  0.55390799  0.51375089  0.03172287    -0.89600
H2654       H  0.54558388  0.50880929  0.97175327     0.18100
H2655       H  0.95171496  0.00436284  0.02868309     0.18100
N2656       N  0.94238348  0.00462199  0.96827250    -0.88600
H2657       H  0.56150709  0.53510848  0.02363236     0.35500
H2658       H  0.57010963  0.49716250  0.02535297     0.40600
H2659       H  0.94269033  0.02592875  0.95712584     0.40200
H2660       H  0.92440683  0.00564265  0.98422413     0.35100
C2661       C  0.97236954  0.86119136  0.12414155    -0.26700
C2662       C  0.99994199  0.84520143  0.12942288    -0.14700
C2663       C  0.52530895  0.86010015  0.12665201     0.35900
C2664       C  0.52403476  0.89222822  0.12761454    -0.26100
C2665       C  0.49610439  0.90806040  0.12397434    -0.15300
C2666       C  0.97153781  0.89335370  0.12355235     0.37000
N2667       N  0.94290120  0.90859270  0.11759379    -0.89600
H2668       H  0.95123229  0.84871118  0.11988582     0.18100
H2669       H  0.54520566  0.90478564  0.13145014     0.18100
N2670       N  0.55435234  0.84503988  0.13081839    -0.88600
H2671       H  0.92716205  0.90184001  0.13447148     0.35500
H2672       H  0.93467309  0.90107565  0.09631481     0.40600
H2673       H  0.56935944  0.85284120  0.11373958     0.40200
H2674       H  0.56325396  0.85163801  0.15214124     0.35100
C2675       C  0.52556532  0.64213805  0.12588927    -0.26700
C2676       C  0.99632474  0.66036500  0.12491585    -0.14700
C2677       C  0.96949051  0.64329636  0.13171855     0.35900
C2678       C  0.97078582  0.61103385  0.13121256    -0.26100
C2679       C  0.49898821  0.59294371  0.12754850    -0.15300
C2680       C  0.52674033  0.60986441  0.12615201     0.37000
N2681       N  0.55600988  0.59446030  0.12464056    -0.89600
H2682       H  0.54689124  0.65493170  0.12454437     0.18100
H2683       H  0.95025089  0.59802503  0.13665691     0.18100
N2684       N  0.94118188  0.65856384  0.13958034    -0.88600
H2685       H  0.57405381  0.61032708  0.12522164     0.35500
H2686       H  0.55733115  0.58357894  0.10325185     0.40600
H2687       H  0.94452796  0.66957985  0.16066358     0.40200
H2688       H  0.92354707  0.64259388  0.14303427     0.35100
loop_ 
_geom_bond_atom_site_label_1 
_geom_bond_atom_site_label_2 
_geom_bond_distance 
_geom_bond_site_symmetry_2 
_ccdc_geom_bond_type 
O1          V681   1.898   1_565  S
O1         C2027   1.265   1_565  A
O2            V9   1.901       .  S
O2         C1356   1.264   1_455  A
O3            V9   1.893       .  S
O3           C13   1.264   1_455  A
O4          V681   1.893       .  S
O4           C14   1.263       .  A
O5          V682   1.891       .  S
O5         C1358   1.264       .  A
O6           V10   1.896       .  S
O6         C1357   1.264       .  A
O7          V682   1.901       .  S
O7          C684   1.263       .  A
O8           V10   1.894       .  S
O8           C11   1.264       .  A
V9          O673   1.900       .  S
V9          O676   1.893       .  S
V9         V1354   2.085   1_455  T
V10         O677   1.892       .  S
V10         O679   1.896       .  S
V10        V1353   2.085       .  T
C11        O2017   1.265       .  A
C11         C635   1.486       .  S
C12        O1346   1.264       .  A
C12         O679   1.262       .  A
C12         C618   1.472       .  S
C13        O1350   1.264       .  A
C13         C649   1.481       .  S
C14        O1349   1.265   1_455  A
C14         C663   1.482       .  S
O15          V23   1.901       .  S
O15        C1369   1.265       .  A
O16          V23   1.902       .  S
O16        C1370   1.266       .  A
O17          V23   1.890       .  S
O17          C27   1.263       .  A
O18          V23   1.895       .  S
O18          C28   1.264       .  A
O19          V24   1.895       .  S
O19        C1372   1.264       .  A
O20          V24   1.896       .  S
O20        C1371   1.265       .  A
O21          V24   1.897       .  S
O21          C26   1.264       .  A
O22          V24   1.897       .  S
O22          C25   1.263       .  A
V23        V1368   2.085       .  T
V24        V1367   2.085   1_455  T
C25        O1359   1.264   1_455  A
C25         C593   1.472       .  S
C26        O1360   1.265   1_455  A
C26         C607   1.488       .  S
C27        O1364   1.264       .  A
C27         C660   1.478       .  S
C28        O1363   1.263       .  A
C28         C646   1.482       .  S
O29          V37   1.896       .  S
O29          C39   1.264       .  A
O30         V709   1.895   1_545  S
O30          C40   1.264       .  A
O31          V37   1.895       .  S
O31         C713   1.264       .  A
O32         V709   1.895       .  S
O32          C42   1.262       .  A
O33         V710   1.899       .  S
O33         C714   1.263       .  A
O34          V38   1.899       .  S
O34          C41   1.266       .  A
O35          V38   1.891   1_545  S
O35          C40   1.264       .  A
O36         V710   1.897       .  S
O36          C39   1.265       .  A
V37         O702   1.897       .  S
V37         O704   1.900       .  S
V37         V710   2.084       .  T
V38         O705   1.897       .  S
V38         O708   1.889       .  S
V38         V709   2.085       .  T
C39         C562   1.487       .  S
C40         C576   1.479       .  S
C41         O703   1.264       .  A
C41         C551   1.489       .  S
C42         O705   1.263       .  A
C42         C534   1.466       .  S
O43          V51   1.897       .  S
O43          C53   1.263       .  A
O44          V51   1.894       .  S
O44          C54   1.264       .  A
O45          V51   1.892       .  S
O45          C55   1.263       .  A
O46          V51   1.892       .  S
O46          C56   1.265       .  A
O47          V52   1.897       .  S
O47          C56   1.264       .  A
O48          V52   1.898       .  S
O48          C55   1.265       .  A
O49          V52   1.905       .  S
O49          C54   1.266       .  A
O50          V52   1.904       .  S
O50          C53   1.266       .  A
V51          V52   2.085       .  T
C53         C506   1.482       .  S
C54         C520   1.487       .  S
C55         C579   1.481       .  S
C56         C565   1.484       .  S
O57         V737   1.899       .  S
O57        C2083   1.263       .  A
O58          V65   1.896       .  S
O58        C1412   1.264   1_455  A
O59          V65   1.891       .  S
O59          C69   1.263   1_455  A
O60         V737   1.900   1_545  S
O60          C70   1.266       .  A
O61         V738   1.891   1_545  S
O61        C1414   1.263       .  A
O62          V66   1.900       .  S
O62        C1413   1.265       .  A
O63         V738   1.897       .  S
O63         C740   1.264       .  A
O64          V66   1.900       .  S
O64          C67   1.264       .  A
V65         O729   1.893       .  S
V65         O732   1.892       .  S
V65        V1410   2.086   1_455  T
V66         O733   1.895       .  S
V66         O735   1.898       .  S
V66        V1409   2.085       .  T
C67        O2073   1.265       .  A
C67        C1136   1.477       .  S
C68        O1402   1.266       .  A
C68         O735   1.264       .  A
C68         C632   1.488       .  S
C69        O1406   1.263       .  A
C69         C478   1.471       .  S
C70        O1405   1.262   1_455  A
C70         C495   1.485       .  S
O71          V79   1.895       .  S
O71        C1425   1.263       .  A
O72          V79   1.893       .  S
O72        C1426   1.262       .  A
O73          V79   1.894       .  S
O73          C83   1.265       .  A
O74          V79   1.897       .  S
O74          C84   1.265       .  A
O75          V80   1.891       .  S
O75        C1428   1.263       .  A
O76          V80   1.899       .  S
O76        C1427   1.263       .  A
O77          V80   1.902       .  S
O77          C82   1.264       .  A
O78          V80   1.900       .  S
O78          C81   1.266       .  A
V79        V1424   2.085       .  T
V80        V1423   2.086   1_455  T
C81        O1415   1.264   1_455  A
C81         C604   1.489       .  S
C82        O1416   1.264   1_455  A
C82         C450   1.475       .  S
C83        O1420   1.263       .  A
C83         C492   1.485       .  S
C84        O1419   1.263       .  A
C84         C481   1.480       .  S
O85          V93   1.894       .  S
O85          C95   1.265       .  A
O86         V765   1.896       .  S
O86          C96   1.264       .  A
O87          V93   1.895       .  S
O87         C769   1.263       .  A
O88         V765   1.901       .  S
O88          C98   1.266       .  A
O89         V766   1.897       .  S
O89         C770   1.264       .  A
O90          V94   1.902       .  S
O90          C97   1.265       .  A
O91          V94   1.893       .  S
O91          C96   1.263       .  A
O92         V766   1.897       .  S
O92          C95   1.264       .  A
V93         O758   1.896       .  S
V93         O760   1.896       .  S
V93         V766   2.086       .  T
V94         O761   1.899       .  S
V94         O764   1.897   1_545  S
V94         V765   2.085       .  T
C95         C425   1.484       .  S
C96         C436   1.478       .  S
C97         O759   1.265       .  A
C97        C1080   1.483       .  S
C98         O761   1.265       .  A
C98         C548   1.490   1_545  S
O99         V107   1.898       .  S
O99         C109   1.265       .  A
O100        V107   1.897       .  S
O100        C110   1.264       .  A
O101        V107   1.892       .  S
O101        C111   1.263       .  A
O102        V107   1.890       .  S
O102        C112   1.262       .  A
O103        V108   1.900       .  S
O103        C112   1.266       .  A
O104        V108   1.894       .  S
O104        C111   1.264       .  A
O105        V108   1.897       .  S
O105        C110   1.263       .  A
O106        V108   1.900       .  S
O106        C109   1.265       .  A
V107        V108   2.086       .  T
C109        C523   1.487       .  S
C110        C394   1.471       .  S
C111        C439   1.476       .  S
C112        C422   1.484       .  S
O113       V1465   1.892       .  S
O113       C2139   1.263   1_545  A
O114        V121   1.900       .  S
O114        C796   1.265   1_545  A
O115        V121   1.892       .  S
O115        C125   1.264   1_545  A
O116       V1465   1.892   1_455  S
O116        C126   1.263       .  A
O117       V1466   1.892   1_455  S
O117        C798   1.263       .  A
O118        V122   1.892       .  S
O118        C797   1.262       .  A
O119       V1466   1.902       .  S
O119       C1468   1.265       .  A
O120        V122   1.899       .  S
O120        C123   1.266       .  A
V121       O1457   1.897       .  S
V121       O1460   1.891       .  S
V121        V794   2.084   1_545  T
V122       O1461   1.891       .  S
V122       O1463   1.902       .  S
V122        V793   2.084       .  T
C123       O2129   1.263       .  A
C123        C352   1.482       .  S
C124        O786   1.264       .  A
C124       O1463   1.265       .  A
C124        C621   1.481       .  S
C125        O790   1.263       .  A
C125        C369   1.480       .  S
C126        O789   1.265   1_545  A
C126        C383   1.482       .  S
O127       V1479   1.903       .  S
O127       C1481   1.265       .  A
O128        V135   1.902       .  S
O128        C138   1.264       .  A
O129        V135   1.892   1_455  S
O129        C139   1.264       .  A
O130       V1479   1.887       .  S
O130        C140   1.262       .  A
O131       V1480   1.904       .  S
O131        C140   1.266       .  A
O132        V136   1.891   1_455  S
O132        C139   1.262       .  A
O133       V1480   1.895       .  S
O133       C1482   1.262       .  A
O134        V136   1.894       .  S
O134        C137   1.264       .  A
V135       O1471   1.902       .  S
V135       O1474   1.895       .  S
V135        V136   2.085       .  T
V136       O1475   1.892       .  S
V136       O1477   1.890       .  S
C137       O1471   1.266       .  A
C137        C313   1.488       .  S
C138       O1477   1.262       .  A
C138        C590   1.471       .  S
C139        C338   1.479       .  S
C140        C324   1.485       .  S
O141        V149   1.896       .  S
O141        C823   1.264       .  A
O142        V149   1.891       .  S
O142        C824   1.264       .  A
O143        V149   1.899       .  S
O143        C153   1.265       .  A
O144        V149   1.898       .  S
O144        C154   1.264       .  A
O145        V150   1.898       .  S
O145        C826   1.265   1_545  A
O146        V150   1.900       .  S
O146        C825   1.265       .  A
O147        V150   1.896       .  S
O147        C152   1.263   1_545  A
O148        V150   1.894       .  S
O148        C151   1.265   1_545  A
V149        V822   2.085       .  T
V150        V821   2.085   1_545  T
C151        O813   1.263       .  A
C151        C380   1.481       .  S
C152        O814   1.263       .  A
C152        C366   1.479       .  S
C153        O818   1.266       .  A
C153        C299   1.487       .  S
C154        O817   1.266       .  A
C154        C537   1.482       .  S
O155        V163   1.890       .  S
O155        C165   1.262       .  A
O156        V163   1.894       .  S
O156        C166   1.265       .  A
O157        V163   1.897       .  S
O157        C167   1.263       .  A
O158        V163   1.896       .  S
O158        C168   1.263       .  A
O159        V164   1.904       .  S
O159        C168   1.265       .  A
O160        V164   1.901       .  S
O160        C167   1.266       .  A
O161        V164   1.894       .  S
O161        C166   1.263       .  A
O162        V164   1.896       .  S
O162        C165   1.265       .  A
V163        V164   2.084       .  T
C165        C341   1.482       .  S
C166        C327   1.484       .  S
C167        C282   1.488       .  S
C168        C509   1.473       .  S
O169       V1521   1.895       .  S
O169       C2195   1.262       .  A
O170        V177   1.894   1_455  S
O170        C852   1.263   1_455  A
O171        V177   1.894   1_455  S
O171        C181   1.265       .  A
O172       V1521   1.895       .  S
O172        C182   1.264       .  A
O173       V1522   1.884       .  S
O173        C854   1.261       .  A
O174        V178   1.894   1_455  S
O174        C853   1.263       .  A
O175       V1522   1.906       .  S
O175       C1524   1.268   1_545  A
O176        V178   1.903       .  S
O176        C179   1.265   1_655  A
V177       O1513   1.891       .  S
V177       O1516   1.897       .  S
V177        V850   2.085       .  T
V178       O1517   1.893       .  S
V178       O1519   1.899       .  S
V178        V849   2.085   1_645  T
C179       O2185   1.264   1_545  A
C179        C467   1.480       .  S
C180        O842   1.264       .  A
C180       O1519   1.266   1_465  A
C180        C355   1.487       .  S
C181        O846   1.262       .  A
C181        C268   1.479       .  S
C182        O845   1.263       .  A
C182        C257   1.483       .  S
O183       V1535   1.895       .  S
O183       C1537   1.264       .  A
O184        V191   1.897       .  S
O184        C194   1.265       .  A
O185        V191   1.894       .  S
O185        C195   1.263       .  A
O186       V1535   1.890   1_455  S
O186        C196   1.263       .  A
O187       V1536   1.894   1_455  S
O187        C196   1.263       .  A
O188        V192   1.899       .  S
O188        C195   1.265       .  A
O189       V1536   1.906       .  S
O189       C1538   1.266       .  A
O190        V192   1.899       .  S
O190        C193   1.265       .  A
V191       O1527   1.900       .  S
V191       O1530   1.894       .  S
V191        V192   2.083       .  T
V192       O1531   1.894       .  S
V192       O1533   1.903       .  S
C193       O1527   1.265       .  A
C193       C1654   1.486       .  S
C194       O1533   1.265       .  A
C194       C1797   1.483       .  S
C195        C226   1.487       .  S
C196        C243   1.474       .  S
O197        V205   1.893       .  S
O197        C879   1.263       .  A
O198        V205   1.890       .  S
O198        C880   1.263       .  A
O199        V205   1.901       .  S
O199        C209   1.265       .  A
O200        V205   1.901       .  S
O200        C210   1.266       .  A
O201        V206   1.900       .  S
O201        C882   1.264       .  A
O202        V206   1.900       .  S
O202        C881   1.263       .  A
O203        V206   1.896       .  S
O203        C208   1.264       .  A
O204        V206   1.900       .  S
O204        C207   1.266       .  A
V205        V878   2.085       .  T
V206        V877   2.086   1_545  T
C207        O869   1.262   1_545  A
C207        C271   1.483       .  S
C208        O870   1.263   1_545  A
C208        C254   1.475       .  S
C209        O874   1.264       .  A
C209        C411   1.477       .  S
C210        O873   1.265       .  A
C210        C296   1.488       .  S
O211        V219   1.900       .  S
O211        C221   1.266       .  A
O212        V219   1.901       .  S
O212        C222   1.265       .  A
O213        V219   1.898       .  S
O213        C223   1.264       .  A
O214        V219   1.896       .  S
O214        C224   1.265       .  A
O215        V220   1.893       .  S
O215        C224   1.263       .  A
O216        V220   1.890       .  S
O216        C223   1.263       .  A
O217        V220   1.893       .  S
O217        C222   1.263       .  A
O218        V220   1.896       .  S
O218        C221   1.264       .  A
V219        V220   2.085       .  T
C221        C285   1.489       .  S
C222        C397   1.475       .  S
C223        C240   1.474       .  S
C224        C229   1.485       .  S
C225        C226   1.406       .  A
C225        C230   1.405       .  A
C225        H232   1.083       .  S
C226        C227   1.416       .  A
C227        C228   1.403       .  A
C227        N234   1.438       .  S
C228        C229   1.404       .  A
C228        H233   1.083       .  S
C229        C230   1.415       .  A
C230        N231   1.438       .  S
N231        H235   1.045       .  S
N231        H236   1.046       .  S
N234        H237   1.045       .  S
N234        H238   1.046       .  S
C239        C240   1.404       .  A
C239        C244   1.395       .  A
C239        H246   1.084       .  S
C240        C241   1.414       .  A
C241        C242   1.395       .  A
C241        N248   1.433       .  S
C242        C243   1.404       .  A
C242        H247   1.084       .  S
C243        C244   1.415       .  A
C244        N245   1.433       .  S
N245        H249   1.044       .  S
N245        H250   1.046       .  S
N248        H251   1.045       .  S
N248        H252   1.045       .  S
C253        C258   1.401       .  A
C253        C926   1.405       .  A
C253        H260   1.083       .  S
C254        C255   1.411       .  A
C254        C925   1.405   1_545  A
C255        C256   1.402       .  A
C255        N262   1.438       .  S
C256        C929   1.406       .  A
C256        H261   1.084       .  S
C257        C258   1.413       .  A
C257        C928   1.406       .  A
C258        N259   1.438       .  S
N259        H263   1.046       .  S
N259        H264   1.046       .  S
N262        H265   1.045       .  S
N262        H266   1.046       .  S
C267        C268   1.403       .  A
C267        C272   1.399       .  A
C267        H274   1.084       .  S
C268        C941   1.412       .  A
C269        C270   1.406       .  A
C269        C940   1.418       .  A
C269        N276   1.438       .  S
C270        C271   1.404       .  A
C270        H275   1.083       .  S
C271        C944   1.412   1_545  A
C272        C943   1.412       .  A
C272        N273   1.433       .  S
N273        H277   1.047       .  S
N273        H278   1.045       .  S
N276        H279   1.042       .  S
N276        H280   1.049       .  S
C281        C282   1.404       .  A
C281        C286   1.404       .  A
C281        H288   1.083       .  S
C282        C283   1.416       .  A
C283        C284   1.406       .  A
C283        N290   1.438       .  S
C284        C285   1.406       .  A
C284        H289   1.083       .  S
C285        C286   1.416       .  A
C286        N287   1.438       .  S
N287        H291   1.045       .  S
N287        H292   1.046       .  S
N290        H293   1.045       .  S
N290        H294   1.046       .  S
C295        C296   1.405       .  A
C295        C300   1.406       .  A
C295        H302   1.083       .  S
C296        C969   1.415       .  A
C297        C298   1.406       .  A
C297        C968   1.415       .  A
C297        N304   1.438       .  S
C298        C971   1.405       .  A
C298        H303   1.083       .  S
C299        C300   1.414       .  A
C299        C970   1.405       .  A
C300        N301   1.438       .  S
N301        H305   1.045       .  S
N301        H306   1.047       .  S
N304        H307   1.046       .  S
N304        H308   1.045       .  S
C309        C310   1.406   1_455  A
C309        C314   1.405       .  A
C309        H316   1.083       .  S
C310       C1537   1.488       .  S
C310       C1655   1.414       .  A
C311        C312   1.403       .  A
C311       C1654   1.414       .  A
C311        N318   1.438       .  S
C312       C1657   1.404       .  A
C312        H317   1.083       .  S
C313        C314   1.414   1_655  A
C313       C1656   1.407       .  A
C314        N315   1.438       .  S
N315        H319   1.046       .  S
N315        H320   1.046       .  S
N318        H321   1.046       .  S
N318        H322   1.045       .  S
C323        C324   1.405       .  A
C323        C328   1.407       .  A
C323        H330   1.083       .  S
C324        C325   1.413       .  A
C325        C326   1.397       .  A
C325        N332   1.433       .  S
C326        C327   1.403       .  A
C326        H331   1.084       .  S
C327        C328   1.417       .  A
C328        N329   1.438       .  S
N329        H333   1.045       .  S
N329        H334   1.046       .  S
N332        H335   1.046       .  S
N332        H336   1.045       .  S
C337        C338   1.403       .  A
C337        C342   1.400       .  A
C337        H344   1.083       .  S
C338        C339   1.414       .  A
C339        C340   1.403       .  A
C339        N346   1.439       .  S
C340        C341   1.406       .  A
C340        H345   1.083       .  S
C341        C342   1.415       .  A
C342        N343   1.438       .  S
N343        H347   1.046       .  S
N343        H348   1.045       .  S
N346        H349   1.046       .  S
N346        H350   1.045       .  S
C351        C352   1.402       .  A
C351        C356   1.403       .  A
C351        H358   1.083       .  S
C352       C2369   1.415       .  A
C353        C354   1.400       .  A
C353       C2368   1.414   1_545  A
C353       N1704   1.433       .  S
C354        C355   1.403   1_645  A
C354        H359   1.084       .  S
C355       C2372   1.414       .  A
C356       C2371   1.414       .  A
C356       N1701   1.438       .  S
N357       C1700   1.438       .  S
N357       H1705   1.045       .  S
N357       H1706   1.046       .  S
N360       C1697   1.438       .  S
N360       H1707   1.046       .  S
N360       H1708   1.045       .  S
H361       N1701   1.042       .  S
H362       N1701   1.050       .  S
H363       N1704   1.046   1_455  S
H364       N1704   1.045       .  S
C365        C370   1.395       .  A
C365       C1038   1.404       .  A
C365        H372   1.084       .  S
C366        C367   1.416   1_565  A
C366       C1037   1.404       .  A
C367        C368   1.397       .  A
C367        N374   1.433       .  S
C368        C369   1.405   1_545  A
C368        H373   1.084       .  S
C369       C1042   1.416       .  A
C370       C1041   1.418       .  A
C370        N371   1.433       .  S
N371        H375   1.045       .  S
N371        H376   1.045       .  S
N374        H377   1.046       .  S
N374        H378   1.044       .  S
C379        C380   1.404   1_545  A
C379        C384   1.400       .  A
C379        H386   1.084       .  S
C380       C1053   1.413       .  A
C381        C382   1.401       .  A
C381       C1052   1.410       .  A
C381        N388   1.433       .  S
C382       C1055   1.404       .  A
C382        H387   1.084       .  S
C383        C384   1.413       .  A
C383       C1054   1.405   1_545  A
C384        N385   1.433       .  S
N385        H389   1.046       .  S
N385        H390   1.045       .  S
N388        H391   1.046       .  S
N388        H392   1.045       .  S
C393        C394   1.401       .  A
C393        C398   1.404       .  A
C393        H400   1.084       .  S
C394        C395   1.413       .  A
C395        C396   1.398       .  A
C395        N402   1.433       .  S
C396        C397   1.403       .  A
C396        H401   1.084       .  S
C397        C398   1.413       .  A
C398        N399   1.438       .  S
N399        H403   1.046       .  S
N399        H404   1.046       .  S
N402        H405   1.045       .  S
N402        H406   1.046       .  S
C407        C412   1.404       .  A
C407       C1080   1.406   1_565  A
C407        H414   1.083       .  S
C408        C769   1.473       .  S
C408        C409   1.411       .  A
C408       C1079   1.402       .  A
C409        C410   1.406       .  A
C409        N416   1.438       .  S
C410        C411   1.404       .  A
C410        H415   1.084       .  S
C411       C1084   1.412       .  A
C412       C1083   1.406   1_565  A
C412        N413   1.438       .  S
N413        H417   1.046       .  S
N413        H418   1.045       .  S
N416        H419   1.045       .  S
N416        H420   1.045       .  S
C421        C422   1.405       .  A
C421        C426   1.402       .  A
C421        H428   1.084       .  S
C422        C423   1.416       .  A
C423        C424   1.403       .  A
C423        N430   1.438       .  S
C424        C425   1.404       .  A
C424        H429   1.083       .  S
C425        C426   1.412       .  A
C426        N427   1.433       .  S
N427        H431   1.046       .  S
N427        H432   1.046       .  S
N430        H433   1.045       .  S
N430        H434   1.047       .  S
C435        C436   1.404       .  A
C435        C440   1.403       .  A
C435        H442   1.084       .  S
C436        C437   1.413       .  A
C437        C438   1.402       .  A
C437        N444   1.438       .  S
C438        C439   1.403       .  A
C438        H443   1.084       .  S
C439        C440   1.413       .  A
C440        N441   1.438       .  S
N441        H445   1.046       .  S
N441        H446   1.046       .  S
N444        H447   1.046       .  S
N444        H448   1.046       .  S
C449        C450   1.402       .  A
C449        C454   1.408       .  A
C449        H456   1.084       .  S
C450       C1795   1.408   1_455  A
C451        C452   1.403       .  A
C451       C1794   1.408       .  A
C451        N458   1.438       .  S
C452       C1797   1.405       .  A
C452        H457   1.084       .  S
C453       C1538   1.482   1_455  S
C453        C454   1.414       .  A
C453       C1796   1.405   1_455  A
C454        N455   1.438       .  S
N455        H459   1.046       .  S
N455        H460   1.044       .  S
N458        H461   1.046       .  S
N458        H462   1.046       .  S
C463        C464   1.405   1_545  A
C463        C468   1.405       .  A
C463        H470   1.084       .  S
C464        C739   1.474       .  S
C464       C2481   1.411       .  A
C465        C466   1.403       .  A
C465       C2480   1.411   1_455  A
C465        N472   1.438       .  S
C466       C1139   1.402   1_455  A
C466        H471   1.084       .  S
C467       C1138   1.405   1_545  A
C467       C1812   1.413   1_455  A
C468       C1811   1.408       .  A
C468        N469   1.438       .  S
N469        H473   1.046       .  S
N469        H474   1.046       .  S
N472        H475   1.045       .  S
N472        H476   1.046       .  S
C477        C478   1.402   1_455  A
C477        C482   1.402       .  A
C477        H484   1.084       .  S
C478       C1823   1.408       .  A
C479        C480   1.402       .  A
C479       C1822   1.411       .  A
C479        N486   1.432       .  S
C480        C481   1.404       .  A
C480        H485   1.084       .  S
C481       C1826   1.411       .  A
C482       C1825   1.412   1_455  A
C482        N483   1.438       .  S
N483       H1831   1.046       .  S
N483       H1832   1.046       .  S
N486       H1833   1.046       .  S
N486       H1834   1.046       .  S
H487       N1827   1.045       .  S
H488       N1827   1.046       .  S
H489       N1830   1.046       .  S
H490       N1830   1.045       .  S
C491        C492   1.405       .  A
C491        C496   1.403       .  A
C491        H498   1.083       .  S
C492       C1837   1.418       .  A
C493        C494   1.399       .  A
C493       C1836   1.418       .  A
C493        N500   1.432       .  S
C494        C495   1.405       .  A
C494        H499   1.084       .  S
C495       C1840   1.416   1_455  A
C496       C1839   1.415       .  A
C496        N497   1.438       .  S
N497        H501   1.046       .  S
N497        H502   1.046       .  S
N500        H503   1.046       .  S
N500        H504   1.044       .  S
C505        C506   1.406       .  A
C505        C510   1.407       .  A
C505        H512   1.084       .  S
C506        C507   1.415       .  A
C507        C508   1.405       .  A
C507        N514   1.438       .  S
C508        C509   1.401       .  A
C508        H513   1.084       .  S
C509        C510   1.408       .  A
C510        N511   1.438       .  S
N511        H515   1.045       .  S
N511        H516   1.046       .  S
N514        H517   1.045       .  S
N514        H518   1.046       .  S
C519        C520   1.405       .  A
C519        C524   1.404   1_554  A
C519        H526   1.083       .  S
C520        C521   1.414       .  A
C521        C522   1.408   1_554  A
C521        N528   1.438       .  S
C522        C523   1.406       .  A
C522        H527   1.083       .  S
C523        C524   1.415       .  A
C524        N525   1.438       .  S
N525        H529   1.046       .  S
N525        H530   1.046       .  S
N528        H531   1.046       .  S
N528        H532   1.045       .  S
C533        C538   1.403       .  A
C533       C1206   1.400       .  A
C533        H540   1.084       .  S
C534        C535   1.407   1_565  A
C534       C1205   1.399       .  A
C535        C536   1.404       .  A
C535        N542   1.438       .  S
C536       C1209   1.406   1_545  A
C536        H541   1.084       .  S
C537        C538   1.413       .  A
C537       C1208   1.405       .  A
C538        N539   1.433       .  S
N539        H543   1.046       .  S
N539        H544   1.046       .  S
N542        H545   1.046       .  S
N542        H546   1.046       .  S
C547        C552   1.403   1_556  A
C547       C1220   1.406       .  A
C547        H554   1.083       .  S
C548        C549   1.416       .  A
C548       C1219   1.406   1_565  A
C549        C550   1.405   1_556  A
C549        N556   1.438       .  S
C550        C551   1.405       .  A
C550        H555   1.083       .  S
C551       C1224   1.416   1_565  A
C552       C1223   1.414       .  A
C552        N553   1.438       .  S
N553        H557   1.045       .  S
N553        H558   1.046       .  S
N556        H559   1.046       .  S
N556        H560   1.046       .  S
C561        C562   1.407       .  A
C561        C566   1.406       .  A
C561        H568   1.083       .  S
C562        C563   1.415       .  A
C563        C564   1.402       .  A
C563        N570   1.438       .  S
C564        C565   1.404       .  A
C564        H569   1.083       .  S
C565        C566   1.414       .  A
C566        N567   1.438       .  S
N567        H571   1.046       .  S
N567        H572   1.045       .  S
N570        H573   1.045       .  S
N570        H574   1.046       .  S
C575        C576   1.405       .  A
C575        C580   1.403       .  A
C575        H582   1.084       .  S
C576        C577   1.413       .  A
C577        C578   1.403       .  A
C577        N584   1.438       .  S
C578        C579   1.405       .  A
C578        H583   1.083       .  S
C579        C580   1.413       .  A
C580        N581   1.438       .  S
N581        H585   1.046       .  S
N581        H586   1.045       .  S
N584        H587   1.046       .  S
N584        H588   1.045       .  S
C589        C594   1.405       .  A
C589       C1934   1.402       .  A
C589        H596   1.084       .  S
C590        C591   1.413   1_655  A
C590       C1933   1.401       .  A
C591        C592   1.403       .  A
C591        N598   1.439       .  S
C592        C593   1.400       .  A
C592        H597   1.084       .  S
C593       C1938   1.412   1_455  A
C594       C1937   1.412       .  A
C594        N595   1.438       .  S
N595        H599   1.046       .  S
N595        H600   1.045       .  S
N598        H601   1.045       .  S
N598        H602   1.046       .  S
C603        C604   1.405       .  A
C603        C608   1.405   1_556  A
C603        H610   1.083       .  S
C604       C1949   1.416   1_455  A
C605        C606   1.406   1_556  A
C605       C1948   1.416       .  A
C605        N612   1.438       .  S
C606       C1951   1.405       .  A
C606        H611   1.083       .  S
C607        C608   1.416       .  A
C607       C1950   1.406   1_455  A
C608        N609   1.438       .  S
N609        H613   1.045       .  S
N609        H614   1.046       .  S
N612        H615   1.046       .  S
N612        H616   1.046       .  S
C617        C622   1.404       .  A
C617       C1962   1.403   1_455  A
C617        H624   1.084       .  S
C618       C1961   1.401       .  A
C618       C1291   1.412       .  A
C619        C620   1.400       .  A
C619       C1290   1.407   1_545  A
C619        N626   1.433       .  S
C620       C1293   1.410   1_545  A
C620        H625   1.083       .  S
C621       C1292   1.405       .  A
C621       C1966   1.412       .  A
C622       C1965   1.409   1_455  A
C622        N623   1.432       .  S
N623        H627   1.046       .  S
N623        H628   1.045       .  S
N626        H629   1.046       .  S
N626        H630   1.045       .  S
C631        C636   1.404   1_556  A
C631       C2648   1.405   1_455  A
C631        H638   1.083       .  S
C632        C633   1.413       .  A
C632       C2647   1.407       .  A
C633        C634   1.401   1_556  A
C633        N640   1.433       .  S
C634        C635   1.405       .  A
C634        H639   1.084       .  S
C635       C2652   1.412       .  A
C636       C2651   1.415       .  A
C636        N637   1.438       .  S
N637        H641   1.045       .  S
N637        H642   1.046       .  S
N640        H643   1.046       .  S
N640        H644   1.045       .  S
C645        C646   1.405       .  A
C645        C650   1.404       .  A
C645        H652   1.083       .  S
C646       C1991   1.414       .  A
C647        C648   1.401       .  A
C647       C1990   1.412       .  A
C647        N654   1.433       .  S
C648        C649   1.405   1_455  A
C648        H653   1.084       .  S
C649       C1994   1.412       .  A
C650       C1993   1.414       .  A
C650        N651   1.438       .  S
N651        H655   1.046       .  S
N651        H656   1.046       .  S
N654        H657   1.046       .  S
N654        H658   1.046       .  S
C659        C664   1.403       .  A
C659       C2004   1.404       .  A
C659        H666   1.083       .  S
C660        C661   1.413       .  A
C660       C2003   1.405       .  A
C661        C662   1.400       .  A
C661        N668   1.438       .  S
C662       C2007   1.403       .  A
C662        H667   1.083       .  S
C663        C664   1.415       .  A
C663       C2006   1.404   1_455  A
C664        N665   1.438       .  S
N665        H669   1.045       .  S
N665        H670   1.046       .  S
N668        H671   1.045       .  S
N668        H672   1.046       .  S
O673       C1355   1.265   1_455  A
O674        V681   1.898       .  S
O674       C2028   1.263       .  A
O675        V681   1.894   1_565  S
O675        C685   1.264   1_455  A
O676        C686   1.263   1_455  A
O677       C2030   1.265       .  A
O678        V682   1.893   1_565  S
O678       C2029   1.263       .  A
O680        V682   1.898       .  S
O680        C683   1.265       .  A
V681       V2026   2.085   1_455  T
V682       V2025   2.086       .  T
C683       O1345   1.264       .  A
C683       C1307   1.487   1_545  S
C684       O2018   1.263   1_545  A
C684       C1290   1.470   1_545  S
C685       O2022   1.263       .  A
C685       C1321   1.480       .  S
C686       O2021   1.264       .  A
C686       C1335   1.479       .  S
O687        V695   1.902       .  S
O687       C2041   1.265       .  A
O688        V695   1.904       .  S
O688       C2042   1.266       .  A
O689        V695   1.889       .  S
O689        C699   1.262       .  A
O690        V695   1.894       .  S
O690        C700   1.264       .  A
O691        V696   1.894       .  S
O691       C2044   1.263   1_455  A
O692        V696   1.892       .  S
O692       C2043   1.265   1_455  A
O693        V696   1.897       .  S
O693        C698   1.264   1_455  A
O694        V696   1.896       .  S
O694        C697   1.263   1_455  A
V695       V2040   2.085       .  T
V696       V2039   2.086   1_455  T
C697       O2031   1.265       .  A
C697       C1265   1.473       .  S
C698       O2032   1.267       .  A
C698       C1279   1.491       .  S
C699       O2036   1.265       .  A
C699       C1332   1.482       .  S
C700       O2035   1.263       .  A
C700       C1318   1.480       .  S
O701        V709   1.898       .  S
O701        C711   1.265       .  A
O702        C712   1.263       .  A
O703        V709   1.900       .  S
O704        C714   1.264       .  A
O706        V710   1.894       .  S
O706        C713   1.264       .  A
O707        V710   1.897       .  S
O707        C712   1.266       .  A
O708        C711   1.262       .  A
C711       C1234   1.475       .  S
C712       C1248   1.482       .  S
C713       C1223   1.483       .  S
C714       C1206   1.471       .  S
O715        V723   1.896       .  S
O715        C725   1.263       .  A
O716        V723   1.895       .  S
O716        C726   1.265       .  A
O717        V723   1.901       .  S
O717        C727   1.265       .  A
O718        V723   1.893       .  S
O718        C728   1.263       .  A
O719        V724   1.894       .  S
O719        C728   1.263       .  A
O720        V724   1.894       .  S
O720        C727   1.264       .  A
O721        V724   1.899       .  S
O721        C726   1.264       .  A
O722        V724   1.897       .  S
O722        C725   1.264       .  A
V723        V724   2.087       .  T
C725       C1178   1.472       .  S
C726       C1192   1.483       .  S
C727       C1251   1.481       .  S
C728       C1237   1.473       .  S
O729       C1411   1.262   1_455  A
O730        V737   1.897       .  S
O730       C2084   1.265   1_455  A
O731        V737   1.896       .  S
O731        C741   1.265   1_455  A
O732        C742   1.264   1_455  A
O733       C2086   1.263       .  A
O734        V738   1.895       .  S
O734       C2085   1.263       .  A
O736        V738   1.895       .  S
O736        C739   1.263       .  A
V737       V2082   2.084   1_455  T
V738       V2081   2.085       .  T
C739       O1401   1.264       .  A
C740       O2074   1.265       .  A
C740       C1304   1.485       .  S
C741       O2078   1.263       .  A
C741       C1150   1.483       .  S
C742       O2077   1.262       .  A
C742       C1167   1.477       .  S
O743        V751   1.900       .  S
O743       C2097   1.264       .  A
O744        V751   1.896       .  S
O744       C2098   1.264       .  A
O745        V751   1.889       .  S
O745        C755   1.263       .  A
O746        V751   1.892       .  S
O746        C756   1.264       .  A
O747        V752   1.887       .  S
O747       C2100   1.261   1_455  A
O748        V752   1.890       .  S
O748       C2099   1.262   1_455  A
O749        V752   1.900       .  S
O749        C754   1.263       .  A
O750        V752   1.899       .  S
O750        C753   1.266   1_455  A
V751       V2096   2.084       .  T
V752       V2095   2.084   1_455  T
C753       O2087   1.265       .  A
C753       C1276   1.491       .  S
C754       O2088   1.264   1_455  A
C754       C1122   1.471       .  S
C755       O2092   1.263       .  A
C755       C1164   1.476       .  S
C756       O2091   1.262       .  A
C756       C1153   1.480       .  S
O757        V765   1.894   1_565  S
O757        C767   1.264       .  A
O758        C768   1.263       .  A
O759        V765   1.897       .  S
O760        C770   1.265       .  A
O762        V766   1.900       .  S
O762        C769   1.264       .  A
O763        V766   1.899       .  S
O763        C768   1.264       .  A
O764        C767   1.264       .  A
C767       C1097   1.481       .  S
C768       C1108   1.475       .  S
C770       C1220   1.485       .  S
O771        V779   1.897       .  S
O771        C781   1.264       .  A
O772        V779   1.899       .  S
O772        C782   1.264       .  A
O773        V779   1.900       .  S
O773        C783   1.265       .  A
O774        V779   1.895       .  S
O774        C784   1.264       .  A
O775        V780   1.897       .  S
O775        C784   1.265       .  A
O776        V780   1.897       .  S
O776        C783   1.264       .  A
O777        V780   1.899       .  S
O777        C782   1.264       .  A
O778        V780   1.897       .  S
O778        C781   1.264       .  A
V779        V780   2.085       .  T
C781       C1195   1.485       .  S
C782       C1066   1.476       .  S
C783       C1111   1.477       .  S
C784       C1094   1.481       .  S
O785       V2137   1.893       .  S
O785       C1467   1.263       .  A
O786        V793   1.898       .  S
O787        V793   1.895       .  S
O787        C797   1.265       .  A
O788       V2137   1.899   1_455  S
O788        C798   1.265       .  A
O789       V2138   1.896   1_455  S
O790        V794   1.895       .  S
O791       V2138   1.902       .  S
O791       C2140   1.265   1_565  A
O792        V794   1.904       .  S
O792        C795   1.266       .  A
V793       O2129   1.897       .  S
V793       O2132   1.895       .  S
V794       O2133   1.896       .  S
V794       O2135   1.904       .  S
C795       O1457   1.264   1_565  A
C795       C1024   1.486       .  S
C796       O2135   1.266       .  A
C796       C1293   1.492       .  S
C797       C1041   1.481       .  S
C798       C1055   1.476       .  S
O799       V2151   1.904       .  S
O799       C2153   1.266       .  A
O800        V807   1.903       .  S
O800        C810   1.266       .  A
O801        V807   1.890       .  S
O801        C811   1.263       .  A
O802       V2151   1.888       .  S
O802        C812   1.262       .  A
O803       V2152   1.898       .  S
O803        C812   1.265       .  A
O804        V808   1.895       .  S
O804        C811   1.264       .  A
O805       V2152   1.893       .  S
O805       C2154   1.262       .  A
O806        V808   1.893   1_655  S
O806        C809   1.263   1_655  A
V807       O2143   1.902       .  S
V807       O2146   1.889   1_455  S
V807        V808   2.085       .  T
V808       O2147   1.895   1_455  S
V808       O2149   1.893       .  S
C809       O2143   1.266       .  A
C809        C985   1.483       .  S
C810       O2149   1.262       .  A
C810       C1262   1.476       .  S
C811       C1010   1.478       .  S
C812        C996   1.483       .  S
O813        V821   1.894       .  S
O814        V821   1.891       .  S
O815        V821   1.897       .  S
O815        C825   1.264   1_565  A
O816        V821   1.895       .  S
O816        C826   1.263       .  A
O817        V822   1.904       .  S
O818        V822   1.903       .  S
O819        V822   1.894       .  S
O819        C824   1.263       .  A
O820        V822   1.895       .  S
O820        C823   1.264       .  A
C823       C1052   1.477       .  S
C824       C1038   1.479       .  S
C825        C971   1.485       .  S
C826       C1209   1.479       .  S
O827        V835   1.892       .  S
O827        C837   1.263       .  A
O828        V835   1.890       .  S
O828        C838   1.264       .  A
O829        V835   1.894       .  S
O829        C839   1.263       .  A
O830        V835   1.894       .  S
O830        C840   1.263       .  A
O831        V836   1.904       .  S
O831        C840   1.265       .  A
O832        V836   1.904       .  S
O832        C839   1.266       .  A
O833        V836   1.896       .  S
O833        C838   1.263       .  A
O834        V836   1.893       .  S
O834        C837   1.264       .  A
V835        V836   2.085       .  T
C837       C1013   1.478       .  S
C838        C999   1.482       .  S
C839        C954   1.486       .  S
C840       C1181   1.476       .  S
O841       V2193   1.887       .  S
O841       C1523   1.261   1_565  A
O842        V849   1.899       .  S
O843        V849   1.899       .  S
O843        C853   1.266   1_565  A
O844       V2193   1.900       .  S
O844        C854   1.266   1_565  A
O845       V2194   1.893       .  S
O846        V850   1.892   1_455  S
O847       V2194   1.906       .  S
O847       C2196   1.266       .  A
O848        V850   1.903       .  S
O848        C851   1.265       .  A
V849       O2185   1.894       .  S
V849       O2188   1.903   1_455  S
V850       O2189   1.884       .  S
V850       O2191   1.903       .  S
C851       O1513   1.262       .  A
C851       C1139   1.473       .  S
C852       O2191   1.267       .  A
C852       C1027   1.489       .  S
C853        C940   1.486       .  S
C854        C929   1.477       .  S
O855       V2207   1.893       .  S
O855       C2209   1.263       .  A
O856        V863   1.893       .  S
O856        C866   1.262       .  A
O857        V863   1.899       .  S
O857        C867   1.265       .  A
O858       V2207   1.895       .  S
O858        C868   1.264       .  A
O859       V2208   1.894       .  S
O859        C868   1.263       .  A
O860        V864   1.900       .  S
O860        C867   1.264       .  A
O861       V2208   1.901       .  S
O861       C2210   1.265       .  A
O862        V864   1.907       .  S
O862        C865   1.267       .  A
V863       O2199   1.890       .  S
V863       O2202   1.900       .  S
V863        V864   2.084       .  T
V864       O2203   1.892       .  S
V864       O2205   1.906       .  S
C865       O2199   1.263       .  A
C865       C2326   1.490       .  S
C866       O2205   1.266       .  A
C866       C2469   1.477       .  S
C867        C898   1.483       .  S
C868        C915   1.479       .  S
O869        V877   1.890       .  S
O870        V877   1.889       .  S
O871        V877   1.897       .  S
O871        C881   1.263   1_565  A
O872        V877   1.898       .  S
O872        C882   1.265   1_565  A
O873        V878   1.901       .  S
O874        V878   1.899       .  S
O875        V878   1.899       .  S
O875        C880   1.264       .  A
O876        V878   1.895       .  S
O876        C879   1.264       .  A
C879        C943   1.480       .  S
C880        C926   1.483       .  S
C881       C1083   1.469       .  S
C882        C968   1.486       .  S
O883        V891   1.898       .  S
O883        C893   1.265       .  A
O884        V891   1.901       .  S
O884        C894   1.265       .  A
O885        V891   1.897       .  S
O885        C895   1.263       .  A
O886        V891   1.896       .  S
O886        C896   1.264       .  A
O887        V892   1.902       .  S
O887        C896   1.265       .  A
O888        V892   1.896       .  S
O888        C895   1.265       .  A
O889        V892   1.901       .  S
O889        C894   1.264       .  A
O890        V892   1.901       .  S
O890        C893   1.265       .  A
V891        V892   2.085       .  T
C893        C957   1.486       .  S
C894       C1069   1.480       .  S
C895        C912   1.480       .  S
C896        C901   1.483       .  S
C897        C898   1.406       .  A
C897        C902   1.408       .  A
C897        H904   1.084       .  S
C898        C899   1.412       .  A
C899        C900   1.404       .  A
C899        N906   1.438       .  S
C900        C901   1.404       .  A
C900        H905   1.084       .  S
C901        C902   1.413       .  A
C902        N903   1.438       .  S
N903        H907   1.046       .  S
N903        H908   1.046       .  S
N906        H909   1.047       .  S
N906        H910   1.045       .  S
C911        C912   1.404       .  A
C911        C916   1.396       .  A
C911        H918   1.084       .  S
C912        C913   1.416       .  A
C913        C914   1.398       .  A
C913        N920   1.433       .  S
C914        C915   1.404       .  A
C914        H919   1.084       .  S
C915        C916   1.416       .  A
C916        N917   1.433       .  S
N917        H921   1.046       .  S
N917        H922   1.044       .  S
N920        H923   1.045       .  S
N920        H924   1.045       .  S
C925        C930   1.402       .  A
C925        H932   1.084       .  S
C926        C927   1.414       .  A
C927        C928   1.405       .  A
C927        N934   1.438       .  S
C928        H933   1.083       .  S
C929        C930   1.411   1_545  A
C930        N931   1.438       .  S
N931        H935   1.046       .  S
N931        H936   1.045       .  S
N934        H937   1.046       .  S
N934        H938   1.045       .  S
C939        C940   1.404   1_565  A
C939        C944   1.400       .  A
C939        H946   1.084       .  S
C941        C942   1.401       .  A
C941        N948   1.433       .  S
C942        C943   1.405       .  A
C942        H947   1.084       .  S
C944        N945   1.433       .  S
N945        H949   1.046       .  S
N945        H950   1.046       .  S
N948        H951   1.046       .  S
N948        H952   1.045       .  S
C953        C954   1.405       .  A
C953        C958   1.407       .  A
C953        H960   1.083       .  S
C954        C955   1.415       .  A
C955        C956   1.405       .  A
C955        N962   1.438       .  S
C956        C957   1.404       .  A
C956        H961   1.083       .  S
C957        C958   1.415       .  A
C958        N959   1.438       .  S
N959        H963   1.045       .  S
N959        H964   1.046       .  S
N962        H965   1.046       .  S
N962        H966   1.046       .  S
C967        C968   1.405   1_565  A
C967        C972   1.404       .  A
C967        H974   1.083       .  S
C969        C970   1.408       .  A
C969        N976   1.438       .  S
C970        H975   1.083       .  S
C971        C972   1.414   1_545  A
C972        N973   1.438       .  S
N973        H977   1.045       .  S
N973        H978   1.046       .  S
N976        H979   1.047       .  S
N976        H980   1.045       .  S
C981        C982   1.405       .  A
C981        C986   1.404       .  A
C981        H988   1.083       .  S
C982       C2209   1.483       .  S
C982       C2327   1.413   1_455  A
C983       C2326   1.414       .  A
C983        C984   1.407       .  A
C983        N990   1.438       .  S
C984       C2329   1.408       .  A
C984        H989   1.083       .  S
C985       C2328   1.406   1_455  A
C985        C986   1.413       .  A
C986        N987   1.438       .  S
N987        H991   1.046       .  S
N987        H992   1.046       .  S
N990        H993   1.046       .  S
N990        H994   1.045       .  S
C995        C996   1.405       .  A
C995       C1000   1.404       .  A
C995       H1002   1.083       .  S
C996        C997   1.416       .  A
C997        C998   1.400       .  A
C997       N1004   1.439       .  S
C998        C999   1.404       .  A
C998       H1003   1.083       .  S
C999       C1000   1.414       .  A
C1000      N1001   1.438       .  S
N1001      H1005   1.045       .  S
N1001      H1006   1.046       .  S
N1004      H1007   1.045       .  S
N1004      H1008   1.047       .  S
C1009      C1010   1.404       .  A
C1009      C1014   1.401       .  A
C1009      H1016   1.084       .  S
C1010      C1011   1.413       .  A
C1011      C1012   1.402       .  A
C1011      N1018   1.438       .  S
C1012      C1013   1.404       .  A
C1012      H1017   1.083       .  S
C1013      C1014   1.413       .  A
C1014      N1015   1.438       .  S
N1015      H1019   1.046       .  S
N1015      H1020   1.046       .  S
N1018      H1021   1.046       .  S
N1018      H1022   1.046       .  S
C1023      C1024   1.404       .  A
C1023      C1028   1.407       .  A
C1023      H1030   1.084       .  S
C1024      C1697   1.414   1_565  A
C1025      C1696   1.417       .  A
C1025      C1026   1.405       .  A
C1025      N2376   1.438   1_655  S
C1026      C1027   1.404       .  A
C1026      H1031   1.083   1_655  S
C1027      C1700   1.417       .  A
C1028      C1699   1.417       .  A
C1028      N2373   1.438       .  S
N1029      C2372   1.432       .  S
N1029      H2377   1.046       .  S
N1029      H2378   1.045   1_455  S
N1032      C2369   1.438       .  S
N1032      H2379   1.045       .  S
N1032      H2380   1.046       .  S
H1033      N2373   1.045       .  S
H1034      N2373   1.046       .  S
H1035      N2376   1.046       .  S
H1036      N2376   1.046       .  S
C1037      C1042   1.395       .  A
C1037      H1044   1.084       .  S
C1038      C1039   1.416       .  A
C1039      C1040   1.396       .  A
C1039      N1046   1.433       .  S
C1040      C1041   1.405       .  A
C1040      H1045   1.084       .  S
C1042      N1043   1.433       .  S
N1043      H1047   1.047       .  S
N1043      H1048   1.044       .  S
N1046      H1049   1.046       .  S
N1046      H1050   1.044       .  S
C1051      C1052   1.404       .  A
C1051      C1056   1.402       .  A
C1051      H1058   1.084       .  S
C1053      C1054   1.401       .  A
C1053      N1060   1.433       .  S
C1054      H1059   1.084       .  S
C1055      C1056   1.410       .  A
C1056      N1057   1.433       .  S
N1057      H1061   1.046       .  S
N1057      H1062   1.045       .  S
N1060      H1063   1.046       .  S
N1060      H1064   1.045       .  S
C1065      C1066   1.404       .  A
C1065      C1070   1.407       .  A
C1065      H1072   1.084       .  S
C1066      C1067   1.413       .  A
C1067      C1068   1.399       .  A
C1067      N1074   1.433       .  S
C1068      C1069   1.403       .  A
C1068      H1073   1.084       .  S
C1069      C1070   1.413       .  A
C1070      N1071   1.438       .  S
N1071      H1075   1.046       .  S
N1071      H1076   1.046       .  S
N1074      H1077   1.045       .  S
N1074      H1078   1.045       .  S
C1079      C1084   1.405       .  A
C1079      H1086   1.084       .  S
C1080      C1081   1.416       .  A
C1081      C1082   1.407       .  A
C1081      N1088   1.438       .  S
C1082      C1083   1.401       .  A
C1082      H1087   1.084       .  S
C1084      N1085   1.438       .  S
N1085      H1089   1.046       .  S
N1085      H1090   1.045       .  S
N1088      H1091   1.045       .  S
N1088      H1092   1.046       .  S
C1093      C1094   1.404       .  A
C1093      C1098   1.401       .  A
C1093      H1100   1.084       .  S
C1094      C1095   1.414       .  A
C1095      C1096   1.404       .  A
C1095      N1102   1.438       .  S
C1096      C1097   1.404       .  A
C1096      H1101   1.084       .  S
C1097      C1098   1.411       .  A
C1098      N1099   1.433       .  S
N1099      H1103   1.046       .  S
N1099      H1104   1.046       .  S
N1102      H1105   1.045       .  S
N1102      H1106   1.047       .  S
C1107      C1108   1.403       .  A
C1107      C1112   1.405       .  A
C1107      H1114   1.084       .  S
C1108      C1109   1.410       .  A
C1109      C1110   1.405       .  A
C1109      N1116   1.438       .  S
C1110      C1111   1.404       .  A
C1110      H1115   1.084       .  S
C1111      C1112   1.411       .  A
C1112      N1113   1.438       .  S
N1113      H1117   1.046       .  S
N1113      H1118   1.045       .  S
N1116      H1119   1.047       .  S
N1116      H1120   1.045       .  S
C1121      C1122   1.401       .  A
C1121      C1126   1.407       .  A
C1121      H1128   1.084       .  S
C1122      C2467   1.407   1_455  A
C1123      C2466   1.409       .  A
C1123      C1124   1.404       .  A
C1123      N1130   1.438       .  S
C1124      C2469   1.404       .  A
C1124      H1129   1.084       .  S
C1125      C2210   1.480       .  S
C1125      C2468   1.406   1_455  A
C1125      C1126   1.414       .  A
C1126      N1127   1.438       .  S
N1127      H1131   1.046       .  S
N1127      H1132   1.045       .  S
N1130      H1133   1.046       .  S
N1130      H1134   1.045       .  S
C1135      C1136   1.405       .  A
C1135      C1140   1.408       .  A
C1135      H1142   1.084       .  S
C1136      C1809   1.408       .  A
C1137      C1808   1.408       .  A
C1137      C1138   1.404       .  A
C1137      N1144   1.438       .  S
C1138      H1143   1.084       .  S
C1139      C2484   1.411       .  A
C1140      C2483   1.411       .  A
C1140      N1141   1.438       .  S
N1141      H1145   1.046       .  S
N1141      H1146   1.046       .  S
N1144      H1147   1.045       .  S
N1144      H1148   1.046       .  S
C1149      C1150   1.404   1_455  A
C1149      C1154   1.403       .  A
C1149      H1156   1.083       .  S
C1150      C2495   1.412       .  A
C1151      C2494   1.411       .  A
C1151      C1152   1.399       .  A
C1151      N1158   1.433       .  S
C1152      C1153   1.404       .  A
C1152      H1157   1.084       .  S
C1153      C2498   1.415       .  A
C1154      C2497   1.417       .  A
C1154      N1155   1.439       .  S
N1155      H2503   1.047       .  S
N1155      H2504   1.045       .  S
N1158      H2505   1.046       .  S
N1158      H2506   1.045       .  S
H1159      N2499   1.043       .  S
H1160      N2499   1.048       .  S
H1161      N2502   1.046       .  S
H1162      N2502   1.045       .  S
C1163      C1164   1.405       .  A
C1163      C1168   1.402       .  A
C1163      H1170   1.084       .  S
C1164      C2509   1.415       .  A
C1165      C2508   1.419   1_455  A
C1165      C1166   1.395       .  A
C1165      N1172   1.433       .  S
C1166      C1167   1.402   1_455  A
C1166      H1171   1.084       .  S
C1167      C2512   1.411       .  A
C1168      C2511   1.412       .  A
C1168      N1169   1.438       .  S
N1169      H1173   1.046       .  S
N1169      H1174   1.046       .  S
N1172      H1175   1.045       .  S
N1172      H1176   1.045       .  S
C1177      C1178   1.400       .  A
C1177      C1182   1.403       .  A
C1177      H1184   1.084       .  S
C1178      C1179   1.411       .  A
C1179      C1180   1.406       .  A
C1179      N1186   1.438       .  S
C1180      C1181   1.404       .  A
C1180      H1185   1.084       .  S
C1181      C1182   1.413       .  A
C1182      N1183   1.438       .  S
N1183      H1187   1.046       .  S
N1183      H1188   1.045       .  S
N1186      H1189   1.046       .  S
N1186      H1190   1.045       .  S
C1191      C1192   1.404       .  A
C1191      C1196   1.403   1_554  A
C1191      H1198   1.083       .  S
C1192      C1193   1.414       .  A
C1193      C1194   1.405   1_554  A
C1193      N1200   1.438       .  S
C1194      C1195   1.406       .  A
C1194      H1199   1.083       .  S
C1195      C1196   1.414       .  A
C1196      N1197   1.438       .  S
N1197      H1201   1.046       .  S
N1197      H1202   1.045       .  S
N1200      H1203   1.045       .  S
N1200      H1204   1.046       .  S
C1205      C1210   1.404       .  A
C1205      H1212   1.084       .  S
C1206      C1207   1.409       .  A
C1207      C1208   1.406       .  A
C1207      N1214   1.438       .  S
C1208      H1213   1.083       .  S
C1209      C1210   1.415       .  A
C1210      N1211   1.438       .  S
N1211      H1215   1.045       .  S
N1211      H1216   1.045       .  S
N1214      H1217   1.046       .  S
N1214      H1218   1.045       .  S
C1219      C1224   1.407   1_556  A
C1219      H1226   1.083       .  S
C1220      C1221   1.415       .  A
C1221      C1222   1.403   1_556  A
C1221      N1228   1.438       .  S
C1222      C1223   1.405       .  A
C1222      H1227   1.083       .  S
C1224      N1225   1.438       .  S
N1225      H1229   1.046       .  S
N1225      H1230   1.046       .  S
N1228      H1231   1.045       .  S
N1228      H1232   1.046       .  S
C1233      C1234   1.404       .  A
C1233      C1238   1.402       .  A
C1233      H1240   1.084       .  S
C1234      C1235   1.411       .  A
C1235      C1236   1.402       .  A
C1235      N1242   1.438       .  S
C1236      C1237   1.403       .  A
C1236      H1241   1.084       .  S
C1237      C1238   1.411       .  A
C1238      N1239   1.438       .  S
N1239      H1243   1.046       .  S
N1239      H1244   1.046       .  S
N1242      H1245   1.046       .  S
N1242      H1246   1.045       .  S
C1247      C1248   1.402       .  A
C1247      C1252   1.399       .  A
C1247      H1254   1.084       .  S
C1248      C1249   1.416       .  A
C1249      C1250   1.408       .  A
C1249      N1256   1.438       .  S
C1250      C1251   1.405       .  A
C1250      H1255   1.084       .  S
C1251      C1252   1.410       .  A
C1252      N1253   1.433       .  S
N1253      H1257   1.046       .  S
N1253      H1258   1.046       .  S
N1256      H1259   1.046       .  S
N1256      H1260   1.046       .  S
C1261      C2606   1.404       .  A
C1261      C1266   1.406       .  A
C1261      H1268   1.084       .  S
C1262      C2605   1.403   1_455  A
C1262      C1263   1.414       .  A
C1263      C1264   1.405       .  A
C1263      N1270   1.438       .  S
C1264      C1265   1.401   1_455  A
C1264      H1269   1.084       .  S
C1265      C2610   1.410       .  A
C1266      C2609   1.410       .  A
C1266      N1267   1.438       .  S
N1267      H1271   1.045       .  S
N1267      H1272   1.046       .  S
N1270      H1273   1.045       .  S
N1270      H1274   1.046       .  S
C1275      C1276   1.404   1_455  A
C1275      C1280   1.401   1_556  A
C1275      H1282   1.084       .  S
C1276      C2621   1.417       .  A
C1277      C2620   1.416       .  A
C1277      C1278   1.407   1_556  A
C1277      N1284   1.438       .  S
C1278      C2623   1.406       .  A
C1278      H1283   1.083       .  S
C1279      C2622   1.407       .  A
C1279      C1280   1.413   1_655  A
C1280      N1281   1.433       .  S
N1281      H1285   1.046       .  S
N1281      H1286   1.046       .  S
N1284      H1287   1.046       .  S
N1284      H1288   1.046       .  S
C1289      C2634   1.404   1_565  A
C1289      C1294   1.404       .  A
C1289      H1296   1.084       .  S
C1290      C2633   1.399       .  A
C1291      C1292   1.399       .  A
C1291      N1298   1.433       .  S
C1292      H1297   1.084       .  S
C1293      C2638   1.419       .  A
C1294      C2637   1.408   1_565  A
C1294      N1295   1.438       .  S
N1295      H1299   1.044       .  S
N1295      H1300   1.047       .  S
N1298      H1301   1.045       .  S
N1298      H1302   1.045       .  S
C1303      C1976   1.405   1_455  A
C1303      C1308   1.405   1_556  A
C1303      H1310   1.083       .  S
C1304      C1975   1.405       .  A
C1304      C1305   1.414   1_565  A
C1305      C1306   1.405   1_556  A
C1305      N1312   1.438       .  S
C1306      C1307   1.405   1_545  A
C1306      H1311   1.083       .  S
C1307      C1980   1.415       .  A
C1308      C1979   1.414   1_455  A
C1308      N1309   1.438       .  S
N1309      H1313   1.047       .  S
N1309      H1314   1.045       .  S
N1312      H1315   1.046       .  S
N1312      H1316   1.045       .  S
C1317      C1318   1.405       .  A
C1317      C1322   1.401       .  A
C1317      H1324   1.084       .  S
C1318      C2663   1.412       .  A
C1319      C2662   1.412   1_455  A
C1319      C1320   1.401       .  A
C1319      N1326   1.433       .  S
C1320      C1321   1.405   1_455  A
C1320      H1325   1.084       .  S
C1321      C2666   1.412       .  A
C1322      C2665   1.412       .  A
C1322      N1323   1.433       .  S
N1323      H1327   1.045       .  S
N1323      H1328   1.046       .  S
N1326      H1329   1.045       .  S
N1326      H1330   1.046       .  S
C1331      C2676   1.403   1_455  A
C1331      C1336   1.400       .  A
C1331      H1338   1.083       .  S
C1332      C2675   1.405       .  A
C1332      C1333   1.415       .  A
C1333      C1334   1.401       .  A
C1333      N1340   1.439       .  S
C1334      C2679   1.404       .  A
C1334      H1339   1.083       .  S
C1335      C2678   1.405       .  A
C1335      C1336   1.413   1_655  A
C1336      N1337   1.438       .  S
N1337      H1341   1.047       .  S
N1337      H1342   1.045       .  S
N1340      H1343   1.046       .  S
N1340      H1344   1.046       .  S
O1345      V2025   1.899       .  S
O1346      V1353   1.901       .  S
O1347      V1353   1.890       .  S
O1347      C1357   1.264       .  A
O1348      V2025   1.893       .  S
O1348      C1358   1.263       .  A
O1349      V2026   1.893       .  S
O1350      V1354   1.895       .  S
O1351      V2026   1.896       .  S
O1351      C2028   1.264   1_655  A
O1352      V1354   1.897       .  S
O1352      C1355   1.265       .  A
V1353      O2017   1.903       .  S
V1353      O2020   1.894       .  S
V1354      O2021   1.894       .  S
V1354      O2023   1.898       .  S
C1355      C1979   1.485       .  S
C1356      O2023   1.264       .  A
C1356      C1962   1.475       .  S
C1357      C1993   1.482       .  S
C1358      C2007   1.478       .  S
O1359      V1367   1.897       .  S
O1360      V1367   1.898       .  S
O1361      V1367   1.889       .  S
O1361      C1371   1.262   1_655  A
O1362      V1367   1.895       .  S
O1362      C1372   1.264   1_655  A
O1363      V1368   1.890       .  S
O1364      V1368   1.893       .  S
O1365      V1368   1.897       .  S
O1365      C1370   1.264       .  A
O1366      V1368   1.896       .  S
O1366      C1369   1.264       .  A
C1369      C1937   1.476       .  S
C1370      C1951   1.487       .  S
C1371      C2004   1.480       .  S
C1372      C1990   1.482       .  S
O1373      V1381   1.897       .  S
O1373      C1383   1.264       .  A
O1374      V2053   1.892   1_545  S
O1374      C1384   1.262       .  A
O1375      V1381   1.897       .  S
O1375      C2057   1.264       .  A
O1376      V2053   1.904       .  S
O1376      C1386   1.265       .  A
O1377      V2054   1.903       .  S
O1377      C2058   1.266       .  A
O1378      V1382   1.899       .  S
O1378      C1385   1.264       .  A
O1379      V1382   1.889   1_545  S
O1379      C1384   1.264       .  A
O1380      V2054   1.893       .  S
O1380      C1383   1.264       .  A
V1381      O2046   1.895       .  S
V1381      O2048   1.897       .  S
V1381      V2054   2.084       .  T
V1382      O2049   1.897       .  S
V1382      O2052   1.889       .  S
V1382      V2053   2.086       .  T
C1383      C1906   1.483       .  S
C1384      C1920   1.479       .  S
C1385      O2047   1.266       .  A
C1385      C1895   1.483   1_565  S
C1386      O2049   1.264       .  A
C1386      C1878   1.481   1_565  S
O1387      V1395   1.899       .  S
O1387      C1397   1.264       .  A
O1388      V1395   1.899       .  S
O1388      C1398   1.265       .  A
O1389      V1395   1.895       .  S
O1389      C1399   1.265       .  A
O1390      V1395   1.895       .  S
O1390      C1400   1.265       .  A
O1391      V1396   1.892       .  S
O1391      C1400   1.263       .  A
O1392      V1396   1.887       .  S
O1392      C1399   1.262       .  A
O1393      V1396   1.903       .  S
O1393      C1398   1.266       .  A
O1394      V1396   1.905       .  S
O1394      C1397   1.266       .  A
V1395      V1396   2.084       .  T
C1397      C1850   1.481       .  S
C1398      C1864   1.488       .  S
C1399      C1923   1.480       .  S
C1400      C1909   1.484       .  S
O1401      V2081   1.898       .  S
O1402      V1409   1.902       .  S
O1403      V1409   1.891       .  S
O1403      C1413   1.263       .  A
O1404      V2081   1.896   1_545  S
O1404      C1414   1.265       .  A
O1405      V2082   1.889   1_545  S
O1406      V1410   1.894       .  S
O1407      V2082   1.899       .  S
O1407      C2084   1.264       .  A
O1408      V1410   1.902       .  S
O1408      C1411   1.265       .  A
V1409      O2073   1.900       .  S
V1409      O2076   1.889       .  S
V1410      O2077   1.891       .  S
V1410      O2079   1.900       .  S
C1411      C2480   1.473       .  S
C1412      O2079   1.265       .  A
C1412      C1976   1.485       .  S
C1413      C1822   1.481       .  S
C1414      C1839   1.482       .  S
O1415      V1423   1.900       .  S
O1416      V1423   1.900       .  S
O1417      V1423   1.891       .  S
O1417      C1427   1.264   1_655  A
O1418      V1423   1.895       .  S
O1418      C1428   1.263   1_655  A
O1419      V1424   1.893       .  S
O1420      V1424   1.899       .  S
O1421      V1424   1.907       .  S
O1421      C1426   1.265       .  A
O1422      V1424   1.905       .  S
O1422      C1425   1.267       .  A
C1425      C1948   1.487       .  S
C1426      C1794   1.473       .  S
C1427      C1836   1.486       .  S
C1428      C1825   1.472   1_455  S
O1429      V1437   1.900       .  S
O1429      C1439   1.266       .  A
O1430      V2109   1.896       .  S
O1430      C1440   1.265       .  A
O1431      V1437   1.896       .  S
O1431      C2113   1.264       .  A
O1432      V2109   1.897       .  S
O1432      C1442   1.264       .  A
O1433      V2110   1.901       .  S
O1433      C2114   1.265       .  A
O1434      V1438   1.902       .  S
O1434      C1441   1.265       .  A
O1435      V1438   1.892       .  S
O1435      C1440   1.263       .  A
O1436      V2110   1.890       .  S
O1436      C1439   1.262       .  A
V1437      O2102   1.897       .  S
V1437      O2104   1.896       .  S
V1437      V2110   2.082       .  T
V1438      O2105   1.905       .  S
V1438      O2108   1.891   1_545  S
V1438      V2109   2.085       .  T
C1439      C1769   1.482       .  S
C1440      C1780   1.478       .  S
C1441      O2103   1.264       .  A
C1441      C2424   1.481       .  S
C1442      O2105   1.266       .  A
C1442      C1892   1.484       .  S
O1443      V1451   1.901       .  S
O1443      C1453   1.265       .  A
O1444      V1451   1.896       .  S
O1444      C1454   1.264       .  A
O1445      V1451   1.894       .  S
O1445      C1455   1.263       .  A
O1446      V1451   1.894       .  S
O1446      C1456   1.263       .  A
O1447      V1452   1.896       .  S
O1447      C1456   1.265       .  A
O1448      V1452   1.893       .  S
O1448      C1455   1.264       .  A
O1449      V1452   1.897       .  S
O1449      C1454   1.262       .  A
O1450      V1452   1.896       .  S
O1450      C1453   1.265       .  A
V1451      V1452   2.085       .  T
C1453      C1867   1.487       .  S
C1454      C1738   1.467       .  S
C1455      C1783   1.479       .  S
C1456      C1766   1.481       .  S
O1458      V1465   1.892       .  S
O1458      C2140   1.262       .  A
O1459      V1465   1.897       .  S
O1459      C1469   1.265   1_545  A
O1460      C1470   1.263   1_545  A
O1461      C2142   1.263       .  A
O1462      V1466   1.897       .  S
O1462      C2141   1.263       .  A
O1464      V1466   1.904       .  S
O1464      C1467   1.267       .  A
V1465      V2138   2.084   1_545  T
V1466      V2137   2.086       .  T
C1467      C1696   1.489       .  S
C1468      O2130   1.264       .  A
C1468      C1965   1.477       .  S
C1469      O2134   1.263       .  A
C1469      C1713   1.481       .  S
C1470      O2133   1.264       .  A
C1470      C1727   1.479       .  S
O1472      V1479   1.901       .  S
O1472      C1482   1.265       .  A
O1473      V1479   1.890       .  S
O1473      C1483   1.262       .  A
O1474      C1484   1.263       .  A
O1475      C1484   1.265       .  A
O1476      V1480   1.898       .  S
O1476      C1483   1.265       .  A
O1478      V1480   1.895       .  S
O1478      C1481   1.264       .  A
V1479      V1480   2.086       .  T
C1481      C1657   1.484       .  S
C1482      C1934   1.473       .  S
C1483      C1682   1.477       .  S
C1484      C1668   1.483       .  S
O1485      V1493   1.901       .  S
O1485      C2167   1.265       .  A
O1486      V1493   1.898       .  S
O1486      C2168   1.265       .  A
O1487      V1493   1.896       .  S
O1487      C1497   1.263       .  A
O1488      V1493   1.898       .  S
O1488      C1498   1.263       .  A
O1489      V1494   1.903       .  S
O1489      C2170   1.264       .  A
O1490      V1494   1.904       .  S
O1490      C2169   1.266   1_545  A
O1491      V1494   1.899       .  S
O1491      C1496   1.264       .  A
O1492      V1494   1.894       .  S
O1492      C1495   1.264   1_545  A
V1493      V2166   2.086       .  T
V1494      V2165   2.085   1_545  T
C1495      O2157   1.263       .  A
C1495      C1724   1.480       .  S
C1496      O2158   1.263   1_545  A
C1496      C1710   1.480       .  S
C1497      O2162   1.265       .  A
C1497      C1643   1.487       .  S
C1498      O2161   1.264       .  A
C1498      C1881   1.472       .  S
O1499      V1507   1.897       .  S
O1499      C1509   1.264       .  A
O1500      V1507   1.895       .  S
O1500      C1510   1.265       .  A
O1501      V1507   1.902       .  S
O1501      C1511   1.265       .  A
O1502      V1507   1.905       .  S
O1502      C1512   1.265       .  A
O1503      V1508   1.901       .  S
O1503      C1512   1.265       .  A
O1504      V1508   1.901       .  S
O1504      C1511   1.265       .  A
O1505      V1508   1.893       .  S
O1505      C1510   1.263       .  A
O1506      V1508   1.889       .  S
O1506      C1509   1.263       .  A
V1507      V1508   2.084       .  T
C1509      C1685   1.476       .  S
C1510      C1671   1.483       .  S
C1511      C1626   1.483       .  S
C1512      C1853   1.481       .  S
O1514      V1521   1.892       .  S
O1514      C2196   1.263       .  A
O1515      V1521   1.895       .  S
O1515      C1525   1.264       .  A
O1516      C1526   1.264       .  A
O1517      C2198   1.263   1_545  A
O1518      V1522   1.886       .  S
O1518      C2197   1.261       .  A
O1520      V1522   1.905       .  S
O1520      C1523   1.266       .  A
V1521      V2194   2.086       .  T
V1522      V2193   2.085   1_545  T
C1523      C1811   1.470       .  S
C1524      O2186   1.262       .  A
C1524      C1699   1.488       .  S
C1525      O2190   1.263       .  A
C1525      C1612   1.479       .  S
C1526      O2189   1.262       .  A
C1526      C1601   1.478       .  S
O1528      V1535   1.897       .  S
O1528      C1538   1.264       .  A
O1529      V1535   1.889       .  S
O1529      C1539   1.262       .  A
O1530      C1540   1.265       .  A
O1531      C1540   1.263       .  A
O1532      V1536   1.897       .  S
O1532      C1539   1.265       .  A
O1534      V1536   1.904       .  S
O1534      C1537   1.266       .  A
V1535      V1536   2.086       .  T
C1539      C1570   1.476       .  S
C1540      C1587   1.484       .  S
O1541      V1549   1.892       .  S
O1541      C2223   1.263       .  A
O1542      V1549   1.890       .  S
O1542      C2224   1.263       .  A
O1543      V1549   1.901       .  S
O1543      C1553   1.265       .  A
O1544      V1549   1.901       .  S
O1544      C1554   1.266       .  A
O1545      V1550   1.897       .  S
O1545      C2226   1.264       .  A
O1546      V1550   1.896       .  S
O1546      C2225   1.263       .  A
O1547      V1550   1.899       .  S
O1547      C1552   1.265   1_545  A
O1548      V1550   1.900       .  S
O1548      C1551   1.266       .  A
V1549      V2222   2.084       .  T
V1550      V2221   2.085   1_545  T
C1551      O2213   1.262   1_545  A
C1551      C1615   1.482       .  S
C1552      O2214   1.263       .  A
C1552      C1598   1.480       .  S
C1553      O2218   1.262       .  A
C1553      C1755   1.468       .  S
C1554      O2217   1.263       .  A
C1554      C1640   1.486       .  S
O1555      V1563   1.902       .  S
O1555      C1565   1.266       .  A
O1556      V1563   1.903       .  S
O1556      C1566   1.265       .  A
O1557      V1563   1.894       .  S
O1557      C1567   1.262       .  A
O1558      V1563   1.892       .  S
O1558      C1568   1.263       .  A
O1559      V1564   1.892       .  S
O1559      C1568   1.263       .  A
O1560      V1564   1.895       .  S
O1560      C1567   1.265       .  A
O1561      V1564   1.894       .  S
O1561      C1566   1.263       .  A
O1562      V1564   1.894       .  S
O1562      C1565   1.263       .  A
V1563      V1564   2.085       .  T
C1565      C1629   1.479       .  S
C1566      C1741   1.480       .  S
C1567      C1584   1.484       .  S
C1568      C1573   1.474       .  S
C1569      C1570   1.404       .  A
C1569      C1574   1.404       .  A
C1569      H1576   1.084       .  S
C1570      C1571   1.411       .  A
C1571      C1572   1.398       .  A
C1571      N1578   1.433       .  S
C1572      C1573   1.402       .  A
C1572      H1577   1.084       .  S
C1573      C1574   1.413       .  A
C1574      N1575   1.438       .  S
N1575      H1579   1.046       .  S
N1575      H1580   1.045       .  S
N1578      H1581   1.047       .  S
N1578      H1582   1.045       .  S
C1583      C1584   1.405       .  A
C1583      C1588   1.396       .  A
C1583      H1590   1.084       .  S
C1584      C1585   1.418       .  A
C1585      C1586   1.396       .  A
C1585      N1592   1.433       .  S
C1586      C1587   1.405       .  A
C1586      H1591   1.084       .  S
C1587      C1588   1.418       .  A
C1588      N1589   1.433       .  S
N1589      H1593   1.044       .  S
N1589      H1594   1.046       .  S
N1592      H1595   1.046       .  S
N1592      H1596   1.045       .  S
C1597      C2270   1.406       .  A
C1597      C1602   1.400       .  A
C1597      H1604   1.084       .  S
C1598      C2269   1.405       .  A
C1598      C1599   1.412   1_565  A
C1599      C1600   1.404       .  A
C1599      N1606   1.438       .  S
C1600      C2273   1.404   1_545  A
C1600      H1605   1.084       .  S
C1601      C2272   1.405       .  A
C1601      C1602   1.410       .  A
C1602      N1603   1.433       .  S
N1603      H1607   1.045       .  S
N1603      H1608   1.046       .  S
N1606      H1609   1.045       .  S
N1606      H1610   1.046       .  S
C1611      C1612   1.404       .  A
C1611      C1616   1.401       .  A
C1611      H1618   1.084       .  S
C1612      C2285   1.411       .  A
C1613      C2284   1.418       .  A
C1613      C1614   1.404       .  A
C1613      N1620   1.439       .  S
C1614      C1615   1.404       .  A
C1614      H1619   1.083       .  S
C1615      C2288   1.413   1_545  A
C1616      C2287   1.412       .  A
C1616      N1617   1.433       .  S
N1617      H1621   1.046       .  S
N1617      H1622   1.045       .  S
N1620      H1623   1.045       .  S
N1620      H1624   1.046       .  S
C1625      C1626   1.404       .  A
C1625      C1630   1.402       .  A
C1625      H1632   1.084       .  S
C1626      C1627   1.414       .  A
C1627      C1628   1.407       .  A
C1627      N1634   1.437       .  S
C1628      C1629   1.403       .  A
C1628      H1633   1.084       .  S
C1629      C1630   1.410       .  A
C1630      N1631   1.433       .  S
N1631      H1635   1.045       .  S
N1631      H1636   1.046       .  S
N1634      H1637   1.046       .  S
N1634      H1638   1.045       .  S
C1639      C1640   1.404       .  A
C1639      C1644   1.405       .  A
C1639      H1646   1.083       .  S
C1640      C2313   1.416       .  A
C1641      C2312   1.416   1_545  A
C1641      C1642   1.407       .  A
C1641      N1648   1.438       .  S
C1642      C2315   1.405   1_545  A
C1642      H1647   1.084       .  S
C1643      C2314   1.405       .  A
C1643      C1644   1.416       .  A
C1644      N1645   1.438       .  S
N1645      H1649   1.045       .  S
N1645      H1650   1.046       .  S
N1648      H1651   1.046       .  S
N1648      H1652   1.045       .  S
C1653      C1654   1.407       .  A
C1653      C1658   1.408       .  A
C1653      H1660   1.083       .  S
C1655      C1656   1.406       .  A
C1655      N1662   1.438       .  S
C1656      H1661   1.083       .  S
C1657      C1658   1.413       .  A
C1658      N1659   1.438       .  S
N1659      H1663   1.045       .  S
N1659      H1664   1.046       .  S
N1662      H1665   1.046       .  S
N1662      H1666   1.046       .  S
C1667      C1668   1.405       .  A
C1667      C1672   1.401       .  A
C1667      H1674   1.083       .  S
C1668      C1669   1.415       .  A
C1669      C1670   1.404       .  A
C1669      N1676   1.438       .  S
C1670      C1671   1.405       .  A
C1670      H1675   1.083       .  S
C1671      C1672   1.414       .  A
C1672      N1673   1.438       .  S
N1673      H1677   1.046       .  S
N1673      H1678   1.046       .  S
N1676      H1679   1.045       .  S
N1676      H1680   1.046       .  S
C1681      C1682   1.405       .  A
C1681      C1686   1.404       .  A
C1681      H1688   1.084       .  S
C1682      C1683   1.411       .  A
C1683      C1684   1.400       .  A
C1683      N1690   1.438       .  S
C1684      C1685   1.403       .  A
C1684      H1689   1.084       .  S
C1685      C1686   1.413       .  A
C1686      N1687   1.438       .  S
N1687      H1691   1.046       .  S
N1687      H1692   1.045       .  S
N1690      H1693   1.045       .  S
N1690      H1694   1.046       .  S
C1695      C1696   1.405       .  A
C1695      C1700   1.406       .  A
C1695      H1702   1.083       .  S
C1697      C1698   1.406       .  A
C1698      C1699   1.404   1_545  A
C1698      H1703   1.083       .  S
C1709      C2382   1.403       .  A
C1709      C1714   1.398       .  A
C1709      H1716   1.084       .  S
C1710      C2381   1.404   1_545  A
C1710      C1711   1.416       .  A
C1711      C1712   1.397       .  A
C1711      N1718   1.433       .  S
C1712      C1713   1.404   1_545  A
C1712      H1717   1.084       .  S
C1713      C2386   1.417       .  A
C1714      C2385   1.416       .  A
C1714      N1715   1.433       .  S
N1715      H1719   1.044       .  S
N1715      H1720   1.046       .  S
N1718      H1721   1.045       .  S
N1718      H1722   1.045       .  S
C1723      C1724   1.404   1_545  A
C1723      C1728   1.399       .  A
C1723      H1730   1.084       .  S
C1724      C2397   1.413       .  A
C1725      C2396   1.411       .  A
C1725      C1726   1.401       .  A
C1725      N1732   1.432       .  S
C1726      C2399   1.406       .  A
C1726      H1731   1.084       .  S
C1727      C2398   1.404       .  A
C1727      C1728   1.412   1_565  A
C1728      N1729   1.433       .  S
N1729      H1733   1.046       .  S
N1729      H1734   1.046       .  S
N1732      H1735   1.044       .  S
N1732      H1736   1.047       .  S
C1737      C1738   1.399       .  A
C1737      C1742   1.403       .  A
C1737      H1744   1.084       .  S
C1738      C1739   1.411       .  A
C1739      C1740   1.399       .  A
C1739      N1746   1.433       .  S
C1740      C1741   1.406       .  A
C1740      H1745   1.084       .  S
C1741      C1742   1.415       .  A
C1742      N1743   1.438       .  S
N1743      H1747   1.046       .  S
N1743      H1748   1.045       .  S
N1746      H1749   1.045       .  S
N1746      H1750   1.046       .  S
C1751      C2424   1.406   1_565  A
C1751      C1756   1.405       .  A
C1751      H1758   1.084       .  S
C1752      C2113   1.481       .  S
C1752      C2423   1.406       .  A
C1752      C1753   1.416       .  A
C1753      C1754   1.405       .  A
C1753      N1760   1.438       .  S
C1754      C1755   1.399       .  A
C1754      H1759   1.084       .  S
C1755      C2428   1.407       .  A
C1756      C2427   1.409   1_565  A
C1756      N1757   1.438       .  S
N1757      H1761   1.046       .  S
N1757      H1762   1.045       .  S
N1760      H1763   1.046       .  S
N1760      H1764   1.045       .  S
C1765      C1766   1.403       .  A
C1765      C1770   1.399       .  A
C1765      H1772   1.084       .  S
C1766      C1767   1.415       .  A
C1767      C1768   1.406       .  A
C1767      N1774   1.438       .  S
C1768      C1769   1.405       .  A
C1768      H1773   1.083       .  S
C1769      C1770   1.412       .  A
C1770      N1771   1.433       .  S
N1771      H1775   1.046       .  S
N1771      H1776   1.045       .  S
N1774      H1777   1.046       .  S
N1774      H1778   1.045       .  S
C1779      C1780   1.404       .  A
C1779      C1784   1.403       .  A
C1779      H1786   1.084       .  S
C1780      C1781   1.413       .  A
C1781      C1782   1.402       .  A
C1781      N1788   1.438       .  S
C1782      C1783   1.404       .  A
C1782      H1787   1.083       .  S
C1783      C1784   1.413       .  A
C1784      N1785   1.438       .  S
N1785      H1789   1.045       .  S
N1785      H1790   1.046       .  S
N1788      H1791   1.046       .  S
N1788      H1792   1.046       .  S
C1793      C1794   1.402       .  A
C1793      C1798   1.409       .  A
C1793      H1800   1.084       .  S
C1795      C1796   1.405       .  A
C1795      N1802   1.438       .  S
C1796      H1801   1.084       .  S
C1797      C1798   1.416       .  A
C1798      N1799   1.438       .  S
N1799      H1803   1.046       .  S
N1799      H1804   1.045       .  S
N1802      H1805   1.046       .  S
N1802      H1806   1.045       .  S
C1807      C1808   1.402   1_645  A
C1807      C1812   1.406       .  A
C1807      H1814   1.084       .  S
C1808      C2083   1.471       .  S
C1809      C1810   1.402       .  A
C1809      N1816   1.432       .  S
C1810      C2483   1.402       .  A
C1810      H1815   1.084       .  S
C1811      C2482   1.403   1_545  A
C1812      N1813   1.438       .  S
N1813      H1817   1.046       .  S
N1813      H1818   1.045       .  S
N1816      H1819   1.045       .  S
N1816      H1820   1.046       .  S
C1821      C1822   1.405       .  A
C1821      C1826   1.400       .  A
C1821      H1828   1.084       .  S
C1823      C1824   1.400       .  A
C1823      N1830   1.433       .  S
C1824      C1825   1.403       .  A
C1824      H1829   1.084       .  S
C1826      N1827   1.433       .  S
C1835      C1836   1.405   1_655  A
C1835      C1840   1.402       .  A
C1835      H1842   1.083       .  S
C1837      C1838   1.397       .  A
C1837      N1844   1.432       .  S
C1838      C1839   1.405       .  A
C1838      H1843   1.084       .  S
C1840      N1841   1.439       .  S
N1841      H1845   1.043       .  S
N1841      H1846   1.048       .  S
N1844      H1847   1.047       .  S
N1844      H1848   1.044       .  S
C1849      C1850   1.404       .  A
C1849      C1854   1.409       .  A
C1849      H1856   1.084       .  S
C1850      C1851   1.412       .  A
C1851      C1852   1.407       .  A
C1851      N1858   1.438       .  S
C1852      C1853   1.404       .  A
C1852      H1857   1.084       .  S
C1853      C1854   1.413       .  A
C1854      N1855   1.438       .  S
N1855      H1859   1.045       .  S
N1855      H1860   1.045       .  S
N1858      H1861   1.046       .  S
N1858      H1862   1.046       .  S
C1863      C1864   1.406       .  A
C1863      C1868   1.407   1_554  A
C1863      H1870   1.083       .  S
C1864      C1865   1.414       .  A
C1865      C1866   1.405   1_554  A
C1865      N1872   1.438       .  S
C1866      C1867   1.405       .  A
C1866      H1871   1.083       .  S
C1867      C1868   1.415       .  A
C1868      N1869   1.438       .  S
N1869      H1873   1.046       .  S
N1869      H1874   1.046       .  S
N1872      H1875   1.045       .  S
N1872      H1876   1.046       .  S
C1877      C2550   1.404       .  A
C1877      C1882   1.405       .  A
C1877      H1884   1.084       .  S
C1878      C2549   1.404   1_545  A
C1878      C1879   1.414       .  A
C1879      C1880   1.408       .  A
C1879      N1886   1.438       .  S
C1880      C2553   1.402       .  A
C1880      H1885   1.084       .  S
C1881      C2552   1.400       .  A
C1881      C1882   1.409       .  A
C1882      N1883   1.438       .  S
N1883      H1887   1.046       .  S
N1883      H1888   1.046       .  S
N1886      H1889   1.045       .  S
N1886      H1890   1.046       .  S
C1891      C2564   1.405       .  A
C1891      C1896   1.405   1_556  A
C1891      H1898   1.083       .  S
C1892      C2563   1.405       .  A
C1892      C1893   1.413   1_545  A
C1893      C1894   1.408   1_556  A
C1893      N1900   1.438       .  S
C1894      C1895   1.405   1_565  A
C1894      H1899   1.084       .  S
C1895      C2568   1.412       .  A
C1896      C2567   1.416       .  A
C1896      N1897   1.438       .  S
N1897      H1901   1.046       .  S
N1897      H1902   1.046       .  S
N1900      H1903   1.046       .  S
N1900      H1904   1.046       .  S
C1905      C1906   1.405       .  A
C1905      C1910   1.403       .  A
C1905      H1912   1.083       .  S
C1906      C1907   1.413       .  A
C1907      C1908   1.403       .  A
C1907      N1914   1.438       .  S
C1908      C1909   1.405       .  A
C1908      H1913   1.083       .  S
C1909      C1910   1.416       .  A
C1910      N1911   1.439       .  S
N1911      H1915   1.046       .  S
N1911      H1916   1.046       .  S
N1914      H1917   1.046       .  S
N1914      H1918   1.046       .  S
C1919      C1920   1.404       .  A
C1919      C1924   1.400       .  A
C1919      H1926   1.083       .  S
C1920      C1921   1.414       .  A
C1921      C1922   1.402       .  A
C1921      N1928   1.438       .  S
C1922      C1923   1.404       .  A
C1922      H1927   1.083       .  S
C1923      C1924   1.415       .  A
C1924      N1925   1.439       .  S
N1925      H1929   1.046       .  S
N1925      H1930   1.045       .  S
N1928      H1931   1.045       .  S
N1928      H1932   1.046       .  S
C1933      C1938   1.405       .  A
C1933      H1940   1.084       .  S
C1934      C1935   1.411       .  A
C1935      C1936   1.404       .  A
C1935      N1942   1.438       .  S
C1936      C1937   1.403       .  A
C1936      H1941   1.084       .  S
C1938      N1939   1.438       .  S
N1939      H1943   1.045       .  S
N1939      H1944   1.046       .  S
N1942      H1945   1.045       .  S
N1942      H1946   1.046       .  S
C1947      C1948   1.404       .  A
C1947      C1952   1.406   1_556  A
C1947      H1954   1.083       .  S
C1949      C1950   1.406   1_556  A
C1949      N1956   1.438       .  S
C1950      H1955   1.083       .  S
C1951      C1952   1.415       .  A
C1952      N1953   1.438       .  S
N1953      H1957   1.045       .  S
N1953      H1958   1.046       .  S
N1956      H1959   1.045       .  S
N1956      H1960   1.047       .  S
C1961      C1966   1.404       .  A
C1961      H1968   1.084       .  S
C1962      C2635   1.414       .  A
C1963      C2634   1.414   1_455  A
C1963      C1964   1.398       .  A
C1963      N1970   1.433       .  S
C1964      C2637   1.403   1_455  A
C1964      H1969   1.084       .  S
C1965      C2636   1.403       .  A
C1966      N1967   1.432       .  S
N1967      H1971   1.045       .  S
N1967      H1972   1.046       .  S
N1970      H1973   1.046       .  S
N1970      H1974   1.044       .  S
C1975      C1980   1.406   1_556  A
C1975      H1982   1.083       .  S
C1976      C1977   1.414       .  A
C1977      C1978   1.405   1_556  A
C1977      N1984   1.438       .  S
C1978      C1979   1.405       .  A
C1978      H1983   1.083       .  S
C1980      N1981   1.438       .  S
N1981      H1985   1.046       .  S
N1981      H1986   1.045       .  S
N1984      H1987   1.045       .  S
N1984      H1988   1.046       .  S
C1989      C1990   1.405   1_655  A
C1989      C1994   1.401       .  A
C1989      H1996   1.084       .  S
C1991      C1992   1.400       .  A
C1991      N1998   1.439       .  S
C1992      C1993   1.404       .  A
C1992      H1997   1.083       .  S
C1994      N1995   1.433       .  S
N1995      H1999   1.046       .  S
N1995      H2000   1.046       .  S
N1998      H2001   1.045       .  S
N1998      H2002   1.047       .  S
C2003      C2008   1.403       .  A
C2003      H2010   1.084       .  S
C2004      C2005   1.415   1_455  A
C2005      C2006   1.401       .  A
C2005      N2012   1.439       .  S
C2006      H2011   1.083       .  S
C2007      C2008   1.414       .  A
C2008      N2009   1.438       .  S
N2009      H2013   1.046       .  S
N2009      H2014   1.046       .  S
N2012      H2015   1.045       .  S
N2012      H2016   1.047       .  S
O2018      V2025   1.901   1_565  S
O2019      V2025   1.891   1_565  S
O2019      C2029   1.264       .  A
O2020      C2030   1.263       .  A
O2022      V2026   1.891   1_565  S
O2024      V2026   1.899       .  S
O2024      C2027   1.265   1_655  A
C2027      C2651   1.489   1_545  S
C2028      C2634   1.474   1_455  S
C2029      C2665   1.479       .  S
C2030      C2679   1.482       .  S
O2031      V2039   1.903       .  S
O2032      V2039   1.908       .  S
O2033      V2039   1.892       .  S
O2033      C2043   1.262       .  A
O2034      V2039   1.893       .  S
O2034      C2044   1.264       .  A
O2035      V2040   1.892       .  S
O2036      V2040   1.897       .  S
O2037      V2040   1.893       .  S
O2037      C2042   1.263       .  A
O2038      V2040   1.893       .  S
O2038      C2041   1.262       .  A
C2041      C2609   1.473       .  S
C2042      C2623   1.489       .  S
C2043      C2676   1.479       .  S
C2044      C2662   1.479       .  S
O2045      V2053   1.897       .  S
O2045      C2055   1.264       .  A
O2046      C2056   1.264       .  A
O2047      V2053   1.903       .  S
O2048      C2058   1.264       .  A
O2050      V2054   1.903       .  S
O2050      C2057   1.266       .  A
O2051      V2054   1.892       .  S
O2051      C2056   1.264       .  A
O2052      C2055   1.263       .  A
C2055      C2578   1.477       .  S
C2056      C2592   1.483       .  S
C2057      C2567   1.490       .  S
C2058      C2550   1.482       .  S
O2059      V2067   1.897       .  S
O2059      C2069   1.263       .  A
O2060      V2067   1.898       .  S
O2060      C2070   1.266       .  A
O2061      V2067   1.890       .  S
O2061      C2071   1.263       .  A
O2062      V2067   1.886       .  S
O2062      C2072   1.262       .  A
O2063      V2068   1.900       .  S
O2063      C2072   1.265       .  A
O2064      V2068   1.898       .  S
O2064      C2071   1.264       .  A
O2065      V2068   1.900       .  S
O2065      C2070   1.264       .  A
O2066      V2068   1.898       .  S
O2066      C2069   1.264       .  A
V2067      V2068   2.085       .  T
C2069      C2522   1.471       .  S
C2070      C2536   1.488       .  S
C2071      C2595   1.483       .  S
C2072      C2581   1.477       .  S
O2074      V2081   1.899       .  S
O2075      V2081   1.893       .  S
O2075      C2085   1.264       .  A
O2076      C2086   1.263       .  A
O2078      V2082   1.894       .  S
O2080      V2082   1.898   1_545  S
O2080      C2083   1.263   1_645  A
C2084      C2648   1.488       .  S
C2085      C2494   1.481       .  S
C2086      C2511   1.475       .  S
O2087      V2095   1.905       .  S
O2088      V2095   1.900       .  S
O2089      V2095   1.897       .  S
O2089      C2099   1.265       .  A
O2090      V2095   1.899       .  S
O2090      C2100   1.266       .  A
O2091      V2096   1.890       .  S
O2092      V2096   1.894       .  S
O2093      V2096   1.900       .  S
O2093      C2098   1.263       .  A
O2094      V2096   1.896       .  S
O2094      C2097   1.266       .  A
C2097      C2620   1.489       .  S
C2098      C2466   1.471       .  S
C2099      C2508   1.481       .  S
C2100      C2497   1.483   1_655  S
O2101      V2109   1.895   1_565  S
O2101      C2111   1.265       .  A
O2102      C2112   1.266       .  A
O2103      V2109   1.895       .  S
O2104      C2114   1.265       .  A
O2106      V2110   1.900       .  S
O2106      C2113   1.264       .  A
O2107      V2110   1.891       .  S
O2107      C2112   1.262       .  A
O2108      C2111   1.262       .  A
C2111      C2441   1.480       .  S
C2112      C2452   1.483       .  S
C2114      C2564   1.489       .  S
O2115      V2123   1.897       .  S
O2115      C2125   1.264       .  A
O2116      V2123   1.899       .  S
O2116      C2126   1.264       .  A
O2117      V2123   1.893       .  S
O2117      C2127   1.263       .  A
O2118      V2123   1.891       .  S
O2118      C2128   1.262       .  A
O2119      V2124   1.897       .  S
O2119      C2128   1.265       .  A
O2120      V2124   1.893       .  S
O2120      C2127   1.264       .  A
O2121      V2124   1.901       .  S
O2121      C2126   1.264       .  A
O2122      V2124   1.902       .  S
O2122      C2125   1.266       .  A
V2123      V2124   2.084       .  T
C2125      C2539   1.489       .  S
C2126      C2410   1.479       .  S
C2127      C2455   1.479       .  S
C2128      C2438   1.481       .  S
O2130      V2137   1.896       .  S
O2131      V2137   1.898       .  S
O2131      C2141   1.265       .  A
O2132      C2142   1.264       .  A
O2134      V2138   1.895       .  S
O2136      V2138   1.906       .  S
O2136      C2139   1.267       .  A
C2139      C2368   1.489       .  S
C2140      C2637   1.471       .  S
C2141      C2385   1.479       .  S
C2142      C2399   1.481       .  S
O2144      V2151   1.905       .  S
O2144      C2154   1.266       .  A
O2145      V2151   1.894       .  S
O2145      C2155   1.264       .  A
O2146      C2156   1.261       .  A
O2147      C2156   1.265       .  A
O2148      V2152   1.895       .  S
O2148      C2155   1.264       .  A
O2150      V2152   1.895       .  S
O2150      C2153   1.264       .  A
V2151      V2152   2.084       .  T
C2153      C2329   1.491       .  S
C2154      C2606   1.476       .  S
C2155      C2354   1.483       .  S
C2156      C2340   1.481       .  S
O2157      V2165   1.893       .  S
O2158      V2165   1.892       .  S
O2159      V2165   1.899       .  S
O2159      C2169   1.264       .  A
O2160      V2165   1.897       .  S
O2160      C2170   1.263   1_565  A
O2161      V2166   1.901       .  S
O2162      V2166   1.897       .  S
O2163      V2166   1.893       .  S
O2163      C2168   1.262       .  A
O2164      V2166   1.889       .  S
O2164      C2167   1.263       .  A
C2167      C2396   1.482       .  S
C2168      C2382   1.478       .  S
C2169      C2315   1.487       .  S
C2170      C2553   1.473       .  S
O2171      V2179   1.899       .  S
O2171      C2181   1.265       .  A
O2172      V2179   1.897       .  S
O2172      C2182   1.265       .  A
O2173      V2179   1.899       .  S
O2173      C2183   1.264       .  A
O2174      V2179   1.898       .  S
O2174      C2184   1.263       .  A
O2175      V2180   1.898       .  S
O2175      C2184   1.265       .  A
O2176      V2180   1.899       .  S
O2176      C2183   1.265       .  A
O2177      V2180   1.887       .  S
O2177      C2182   1.262       .  A
O2178      V2180   1.889       .  S
O2178      C2181   1.263       .  A
V2179      V2180   2.084       .  T
C2181      C2357   1.483       .  S
C2182      C2343   1.480       .  S
C2183      C2298   1.485       .  S
C2184      C2525   1.478       .  S
O2186      V2193   1.894       .  S
O2187      V2193   1.898       .  S
O2187      C2197   1.266   1_565  A
O2188      C2198   1.265       .  A
O2190      V2194   1.893       .  S
O2192      V2194   1.905       .  S
O2192      C2195   1.266       .  A
C2195      C2483   1.475       .  S
C2196      C2371   1.483       .  S
C2197      C2284   1.482       .  S
C2198      C2273   1.480       .  S
O2200      V2207   1.895       .  S
O2200      C2210   1.264       .  A
O2201      V2207   1.892   1_655  S
O2201      C2211   1.263       .  A
O2202      C2212   1.266       .  A
O2203      C2212   1.262       .  A
O2204      V2208   1.896   1_655  S
O2204      C2211   1.264       .  A
O2206      V2208   1.902       .  S
O2206      C2209   1.266       .  A
V2207      V2208   2.085       .  T
C2211      C2242   1.473       .  S
C2212      C2259   1.482       .  S
O2213      V2221   1.888       .  S
O2214      V2221   1.895       .  S
O2215      V2221   1.901       .  S
O2215      C2225   1.264   1_565  A
O2216      V2221   1.904       .  S
O2216      C2226   1.267   1_565  A
O2217      V2222   1.892       .  S
O2218      V2222   1.892       .  S
O2219      V2222   1.893       .  S
O2219      C2224   1.264       .  A
O2220      V2222   1.893       .  S
O2220      C2223   1.264       .  A
C2223      C2287   1.479       .  S
C2224      C2270   1.480       .  S
C2225      C2427   1.471       .  S
C2226      C2312   1.487   1_545  S
O2227      V2235   1.899       .  S
O2227      C2237   1.265       .  A
O2228      V2235   1.901       .  S
O2228      C2238   1.264       .  A
O2229      V2235   1.897       .  S
O2229      C2239   1.264       .  A
O2230      V2235   1.893       .  S
O2230      C2240   1.263       .  A
O2231      V2236   1.893       .  S
O2231      C2240   1.263       .  A
O2232      V2236   1.894       .  S
O2232      C2239   1.264       .  A
O2233      V2236   1.900       .  S
O2233      C2238   1.265       .  A
O2234      V2236   1.900       .  S
O2234      C2237   1.265       .  A
V2235      V2236   2.085       .  T
C2237      C2301   1.485       .  S
C2238      C2413   1.477       .  S
C2239      C2256   1.483       .  S
C2240      C2245   1.472       .  S
C2241      C2242   1.403       .  A
C2241      C2246   1.403       .  A
C2241      H2248   1.084       .  S
C2242      C2243   1.412       .  A
C2243      C2244   1.402       .  A
C2243      N2250   1.438       .  S
C2244      C2245   1.402       .  A
C2244      H2249   1.084       .  S
C2245      C2246   1.411       .  A
C2246      N2247   1.438       .  S
N2247      H2251   1.045       .  S
N2247      H2252   1.047       .  S
N2250      H2253   1.046       .  S
N2250      H2254   1.046       .  S
C2255      C2256   1.405       .  A
C2255      C2260   1.397       .  A
C2255      H2262   1.084       .  S
C2256      C2257   1.417       .  A
C2257      C2258   1.397       .  A
C2257      N2264   1.432       .  S
C2258      C2259   1.404       .  A
C2258      H2263   1.084       .  S
C2259      C2260   1.418       .  A
C2260      N2261   1.433       .  S
N2261      H2265   1.046       .  S
N2261      H2266   1.044       .  S
N2264      H2267   1.046       .  S
N2264      H2268   1.044       .  S
C2269      C2274   1.406       .  A
C2269      H2276   1.084       .  S
C2270      C2271   1.414       .  A
C2271      C2272   1.400       .  A
C2271      N2278   1.438       .  S
C2272      H2277   1.083       .  S
C2273      C2274   1.412       .  A
C2274      N2275   1.438       .  S
N2275      H2279   1.047       .  S
N2275      H2280   1.045       .  S
N2278      H2281   1.045       .  S
N2278      H2282   1.046       .  S
C2283      C2284   1.403   1_565  A
C2283      C2288   1.398       .  A
C2283      H2290   1.084       .  S
C2285      C2286   1.400       .  A
C2285      N2292   1.433       .  S
C2286      C2287   1.404       .  A
C2286      H2291   1.084       .  S
C2288      N2289   1.433       .  S
N2289      H2293   1.046       .  S
N2289      H2294   1.046       .  S
N2292      H2295   1.046       .  S
N2292      H2296   1.045       .  S
C2297      C2298   1.405       .  A
C2297      C2302   1.405       .  A
C2297      H2304   1.083       .  S
C2298      C2299   1.414       .  A
C2299      C2300   1.406       .  A
C2299      N2306   1.438       .  S
C2300      C2301   1.405       .  A
C2300      H2305   1.083       .  S
C2301      C2302   1.413       .  A
C2302      N2303   1.438       .  S
N2303      H2307   1.045       .  S
N2303      H2308   1.047       .  S
N2306      H2309   1.046       .  S
N2306      H2310   1.045       .  S
C2311      C2312   1.404       .  A
C2311      C2316   1.406       .  A
C2311      H2318   1.083       .  S
C2313      C2314   1.403       .  A
C2313      N2320   1.439       .  S
C2314      H2319   1.083       .  S
C2315      C2316   1.415       .  A
C2316      N2317   1.438       .  S
N2317      H2321   1.046       .  S
N2317      H2322   1.046       .  S
N2320      H2323   1.044       .  S
N2320      H2324   1.047       .  S
C2325      C2326   1.407       .  A
C2325      C2330   1.405       .  A
C2325      H2332   1.083       .  S
C2327      C2328   1.405       .  A
C2327      N2334   1.438       .  S
C2328      H2333   1.083       .  S
C2329      C2330   1.414       .  A
C2330      N2331   1.438       .  S
N2331      H2335   1.046       .  S
N2331      H2336   1.045       .  S
N2334      H2337   1.046       .  S
N2334      H2338   1.046       .  S
C2339      C2340   1.403       .  A
C2339      C2344   1.396       .  A
C2339      H2346   1.084       .  S
C2340      C2341   1.417       .  A
C2341      C2342   1.405       .  A
C2341      N2348   1.438       .  S
C2342      C2343   1.404       .  A
C2342      H2347   1.083       .  S
C2343      C2344   1.412       .  A
C2344      N2345   1.433       .  S
N2345      H2349   1.046       .  S
N2345      H2350   1.046       .  S
N2348      H2351   1.046       .  S
N2348      H2352   1.046       .  S
C2353      C2354   1.406       .  A
C2353      C2358   1.404       .  A
C2353      H2360   1.083       .  S
C2354      C2355   1.413       .  A
C2355      C2356   1.402       .  A
C2355      N2362   1.438       .  S
C2356      C2357   1.405       .  A
C2356      H2361   1.083       .  S
C2357      C2358   1.413       .  A
C2358      N2359   1.438       .  S
N2359      H2363   1.045       .  S
N2359      H2364   1.046       .  S
N2362      H2365   1.046       .  S
N2362      H2366   1.045       .  S
C2367      C2368   1.406   1_455  A
C2367      C2372   1.406       .  A
C2367      H2374   1.084       .  S
C2369      C2370   1.407       .  A
C2370      C2371   1.404       .  A
C2370      H2375   1.084       .  S
C2381      C2386   1.397       .  A
C2381      H2388   1.084       .  S
C2382      C2383   1.416       .  A
C2383      C2384   1.398       .  A
C2383      N2390   1.433       .  S
C2384      C2385   1.404       .  A
C2384      H2389   1.084       .  S
C2386      N2387   1.433       .  S
N2387      H2391   1.045       .  S
N2387      H2392   1.045       .  S
N2390      H2393   1.046       .  S
N2390      H2394   1.044       .  S
C2395      C2396   1.405       .  A
C2395      C2400   1.399       .  A
C2395      H2402   1.084       .  S
C2397      C2398   1.401       .  A
C2397      N2404   1.433       .  S
C2398      H2403   1.084       .  S
C2399      C2400   1.411       .  A
C2400      N2401   1.433       .  S
N2401      H2405   1.046       .  S
N2401      H2406   1.046       .  S
N2404      H2407   1.045       .  S
N2404      H2408   1.046       .  S
C2409      C2410   1.404       .  A
C2409      C2414   1.406       .  A
C2409      H2416   1.084       .  S
C2410      C2411   1.415       .  A
C2411      C2412   1.400       .  A
C2411      N2418   1.433       .  S
C2412      C2413   1.403       .  A
C2412      H2417   1.084       .  S
C2413      C2414   1.411       .  A
C2414      N2415   1.438       .  S
N2415      H2419   1.046       .  S
N2415      H2420   1.046       .  S
N2418      H2421   1.045       .  S
N2418      H2422   1.045       .  S
C2423      C2428   1.404       .  A
C2423      H2430   1.084       .  S
C2424      C2425   1.413       .  A
C2425      C2426   1.406       .  A
C2425      N2432   1.438       .  S
C2426      C2427   1.401       .  A
C2426      H2431   1.084       .  S
C2428      N2429   1.438       .  S
N2429      H2433   1.045       .  S
N2429      H2434   1.046       .  S
N2432      H2435   1.046       .  S
N2432      H2436   1.046       .  S
C2437      C2438   1.404       .  A
C2437      C2442   1.400       .  A
C2437      H2444   1.084       .  S
C2438      C2439   1.413       .  A
C2439      C2440   1.400       .  A
C2439      N2446   1.433       .  S
C2440      C2441   1.404       .  A
C2440      H2445   1.084       .  S
C2441      C2442   1.413       .  A
C2442      N2443   1.433       .  S
N2443      H2447   1.046       .  S
N2443      H2448   1.046       .  S
N2446      H2449   1.047       .  S
N2446      H2450   1.045       .  S
C2451      C2452   1.405       .  A
C2451      C2456   1.399       .  A
C2451      H2458   1.084       .  S
C2452      C2453   1.417       .  A
C2453      C2454   1.403       .  A
C2453      N2460   1.438       .  S
C2454      C2455   1.403       .  A
C2454      H2459   1.083       .  S
C2455      C2456   1.410       .  A
C2456      N2457   1.433       .  S
N2457      H2461   1.046       .  S
N2457      H2462   1.045       .  S
N2460      H2463   1.045       .  S
N2460      H2464   1.046       .  S
C2465      C2466   1.402       .  A
C2465      C2470   1.404       .  A
C2465      H2472   1.084       .  S
C2467      C2468   1.404       .  A
C2467      N2474   1.438       .  S
C2468      H2473   1.084       .  S
C2469      C2470   1.410       .  A
C2470      N2471   1.432       .  S
N2471      H2475   1.046       .  S
N2471      H2476   1.046       .  S
N2474      H2477   1.046       .  S
N2474      H2478   1.046       .  S
C2479      C2480   1.403       .  A
C2479      C2484   1.406       .  A
C2479      H2486   1.084       .  S
C2481      C2482   1.403       .  A
C2481      N2488   1.438       .  S
C2482      H2487   1.084       .  S
C2484      N2485   1.438       .  S
N2485      H2489   1.046       .  S
N2485      H2490   1.046       .  S
N2488      H2491   1.044       .  S
N2488      H2492   1.046       .  S
C2493      C2494   1.405       .  A
C2493      C2498   1.403       .  A
C2493      H2500   1.083       .  S
C2495      C2496   1.400       .  A
C2495      N2502   1.433       .  S
C2496      C2497   1.404   1_655  A
C2496      H2501   1.084       .  S
C2498      N2499   1.438       .  S
C2507      C2508   1.405       .  A
C2507      C2512   1.400       .  A
C2507      H2514   1.084       .  S
C2509      C2510   1.394       .  A
C2509      N2516   1.433       .  S
C2510      C2511   1.403       .  A
C2510      H2515   1.084       .  S
C2512      N2513   1.433       .  S
N2513      H2517   1.046       .  S
N2513      H2518   1.046       .  S
N2516      H2519   1.046       .  S
N2516      H2520   1.045       .  S
C2521      C2522   1.401       .  A
C2521      C2526   1.406       .  A
C2521      H2528   1.084       .  S
C2522      C2523   1.409       .  A
C2523      C2524   1.404       .  A
C2523      N2530   1.438       .  S
C2524      C2525   1.404       .  A
C2524      H2529   1.084       .  S
C2525      C2526   1.414       .  A
C2526      N2527   1.438       .  S
N2527      H2531   1.046       .  S
N2527      H2532   1.045       .  S
N2530      H2533   1.045       .  S
N2530      H2534   1.046       .  S
C2535      C2536   1.404       .  A
C2535      C2540   1.404   1_554  A
C2535      H2542   1.083       .  S
C2536      C2537   1.416       .  A
C2537      C2538   1.408   1_554  A
C2537      N2544   1.438       .  S
C2538      C2539   1.406       .  A
C2538      H2543   1.083       .  S
C2539      C2540   1.415       .  A
C2540      N2541   1.438       .  S
N2541      H2545   1.046       .  S
N2541      H2546   1.046       .  S
N2544      H2547   1.045       .  S
N2544      H2548   1.046       .  S
C2549      C2554   1.404       .  A
C2549      H2556   1.084       .  S
C2550      C2551   1.415       .  A
C2551      C2552   1.407       .  A
C2551      N2558   1.438       .  S
C2552      H2557   1.084       .  S
C2553      C2554   1.409   1_545  A
C2554      N2555   1.438       .  S
N2555      H2559   1.046       .  S
N2555      H2560   1.045       .  S
N2558      H2561   1.045       .  S
N2558      H2562   1.046       .  S
C2563      C2568   1.405   1_556  A
C2563      H2570   1.084       .  S
C2564      C2565   1.415       .  A
C2565      C2566   1.407   1_556  A
C2565      N2572   1.438       .  S
C2566      C2567   1.406       .  A
C2566      H2571   1.083       .  S
C2568      N2569   1.438       .  S
N2569      H2573   1.046       .  S
N2569      H2574   1.045       .  S
N2572      H2575   1.046       .  S
N2572      H2576   1.046       .  S
C2577      C2578   1.405       .  A
C2577      C2582   1.402       .  A
C2577      H2584   1.084       .  S
C2578      C2579   1.412       .  A
C2579      C2580   1.402       .  A
C2579      N2586   1.438       .  S
C2580      C2581   1.405       .  A
C2580      H2585   1.084       .  S
C2581      C2582   1.411       .  A
C2582      N2583   1.438       .  S
N2583      H2587   1.046       .  S
N2583      H2588   1.045       .  S
N2586      H2589   1.046       .  S
N2586      H2590   1.046       .  S
C2591      C2592   1.406       .  A
C2591      C2596   1.403       .  A
C2591      H2598   1.083       .  S
C2592      C2593   1.414       .  A
C2593      C2594   1.402       .  A
C2593      N2600   1.438       .  S
C2594      C2595   1.405       .  A
C2594      H2599   1.083       .  S
C2595      C2596   1.413       .  A
C2596      N2597   1.438       .  S
N2597      H2601   1.045       .  S
N2597      H2602   1.046       .  S
N2600      H2603   1.045       .  S
N2600      H2604   1.046       .  S
C2605      C2610   1.406       .  A
C2605      H2612   1.084       .  S
C2606      C2607   1.413       .  A
C2607      C2608   1.404       .  A
C2607      N2614   1.439       .  S
C2608      C2609   1.402       .  A
C2608      H2613   1.084       .  S
C2610      N2611   1.438       .  S
N2611      H2615   1.046       .  S
N2611      H2616   1.046       .  S
N2614      H2617   1.045       .  S
N2614      H2618   1.046       .  S
C2619      C2620   1.404       .  A
C2619      C2624   1.403   1_556  A
C2619      H2626   1.083       .  S
C2621      C2622   1.411   1_556  A
C2621      N2628   1.438       .  S
C2622      H2627   1.083       .  S
C2623      C2624   1.416       .  A
C2624      N2625   1.438       .  S
N2625      H2629   1.046       .  S
N2625      H2630   1.045       .  S
N2628      H2631   1.045       .  S
N2628      H2632   1.047       .  S
C2633      C2638   1.408       .  A
C2633      H2640   1.084       .  S
C2635      C2636   1.399       .  A
C2635      N2642   1.433       .  S
C2636      H2641   1.084       .  S
C2638      N2639   1.438       .  S
N2639      H2643   1.045       .  S
N2639      H2644   1.047       .  S
N2642      H2645   1.043       .  S
N2642      H2646   1.047       .  S
C2647      C2652   1.405   1_556  A
C2647      H2654   1.084       .  S
C2648      C2649   1.415   1_565  A
C2649      C2650   1.406   1_556  A
C2649      N2656   1.438       .  S
C2650      C2651   1.406   1_645  A
C2650      H2655   1.083       .  S
C2652      N2653   1.432       .  S
N2653      H2657   1.047       .  S
N2653      H2658   1.045       .  S
N2656      H2659   1.045       .  S
N2656      H2660   1.046       .  S
C2661      C2662   1.403       .  A
C2661      C2666   1.398       .  A
C2661      H2668   1.084       .  S
C2663      C2664   1.398       .  A
C2663      N2670   1.433       .  S
C2664      C2665   1.403       .  A
C2664      H2669   1.084       .  S
C2666      N2667   1.433       .  S
N2667      H2671   1.046       .  S
N2667      H2672   1.045       .  S
N2670      H2673   1.046       .  S
N2670      H2674   1.046       .  S
C2675      C2680   1.404       .  A
C2675      H2682   1.083       .  S
C2676      C2677   1.415       .  A
C2677      C2678   1.403       .  A
C2677      N2684   1.439       .  S
C2678      H2683   1.084       .  S
C2679      C2680   1.415       .  A
C2680      N2681   1.438       .  S
N2681      H2685   1.046       .  S
N2681      H2686   1.046       .  S
N2684      H2687   1.045       .  S
N2684      H2688   1.046       .  S
