geometry optimzed in LAMMPS
_audit_creation_date              2020-11-30 
_audit_creation_method            'lammps2cif' 
_symmetry_space_group_name_H-M    'P1' 
_symmetry_Int_Tables_number       1 
_symmetry_cell_setting            triclinic 
loop_ 
_symmetry_equiv_pos_as_xyz 
  x,y,z 
_cell_length_a                    35.08672113 
_cell_length_b                    33.85565775375587 
_cell_length_c                    69.31295779372836 
_cell_angle_alpha                 89.60015841155985 
_cell_angle_beta                  89.97819562443694 
_cell_angle_gamma                 121.17854201546109 
loop_ 
_atom_site_label 
_atom_site_type_symbol 
_atom_site_fract_x 
_atom_site_fract_y 
_atom_site_fract_z 
_atom_site_charge 
C1          C  0.28942095  0.29262587  0.12428477     0.80300
N2          N  0.28331800  0.32539676  0.13257093    -0.78000
C3          C  0.31015538  0.35168382  0.14714859     0.82700
N4          N  0.34343559  0.34564543  0.15314025    -0.78000
C5          C  0.35044201  0.31374158  0.14501237     0.82800
N6          N  0.32321817  0.28719574  0.13059145    -0.79700
C7          C  0.67289937  0.35145514  0.22671254     0.45500
H8          H  0.67650945  0.35561979  0.24261120    -0.03500
C9          C  0.66486583  0.34236501  0.18943763     0.45600
H10         H  0.66154877  0.33864624  0.17352256    -0.03500
C11         C  0.70925553  0.39288269  0.21552058    -0.17200
C12         C  0.67421793  0.30961891  0.21918048    -0.17000
C13         C  0.62930796  0.34537211  0.21908094    -0.17300
C14         C  0.70553340  0.38808536  0.19583277    -0.17300
C15         C  0.66999429  0.30500710  0.19945645    -0.16900
C16         C  0.62459498  0.33956859  0.19944492    -0.17200
C17         C  0.32698531  0.67534505  0.23604621     0.45500
H18         H  0.32726630  0.68049048  0.25187032    -0.03500
C19         C  0.32659224  0.66325064  0.19892686     0.45600
H20         H  0.32618412  0.65797643  0.18310012    -0.03500
C21         C  0.32062684  0.62852811  0.23054648    -0.17200
C22         C  0.29012669  0.67814663  0.22534682    -0.17000
C23         C  0.37026162  0.71100095  0.22581800    -0.17300
C24         C  0.32048845  0.62236975  0.21097357    -0.17300
C25         C  0.28981341  0.67119042  0.20584457    -0.16900
C26         C  0.36987974  0.70494888  0.20620757    -0.17200
C27         C  0.01830825  0.68799373  0.10160321     0.80300
N28         N  0.05589380  0.69156350  0.10895566    -0.78000
C29         C  0.05296312  0.65983780  0.12189590     0.82700
N30         N  0.01242882  0.62519225  0.12780400    -0.78000
C31         C  0.97462209  0.62182214  0.12103442     0.82800
N32         N  0.97776945  0.65327027  0.10783646    -0.79700
C33         C  0.69034891  0.00177734  0.11379290     0.80300
N34         N  0.69327361  0.04062222  0.12087071    -0.78000
C35         C  0.66176545  0.03807630  0.13300941     0.82700
N36         N  0.62686471  0.99606647  0.13793213    -0.78000
C37         C  0.62304787  0.95686811  0.13106647     0.82800
N38         N  0.65493726  0.95956379  0.11896238    -0.79700
C39         C  0.00339541  0.73473443  0.29681474     0.80300
N40         N  0.04273866  0.74133672  0.28999533    -0.78000
C41         C  0.04327353  0.71497592  0.27540658     0.82700
N42         N  0.00419411  0.68200938  0.26771729    -0.78000
C43         C  0.96486194  0.67459754  0.27454176     0.82800
N44         N  0.96448255  0.70090493  0.28911647    -0.79700
C45         C  0.69172281  0.01223955  0.31393432     0.80300
N46         N  0.69792048  0.05437699  0.30910461    -0.78000
C47         C  0.66900865  0.05727400  0.29695247     0.82700
N48         N  0.63480948  0.01832011  0.28939850    -0.78000
C49         C  0.62846318  0.97630561  0.29369219     0.82800
N50         N  0.65694085  0.97347136  0.30608725    -0.79700
C51         C  0.33289780  0.32385573  0.31888832     0.80300
N52         N  0.32789209  0.35943059  0.31303361    -0.78000
C53         C  0.35781397  0.39257213  0.30076800     0.82700
N54         N  0.39265386  0.38959931  0.29439044    -0.78000
C55         C  0.39817446  0.35453435  0.29996561     0.82800
N56         N  0.36815730  0.32160103  0.31216470    -0.79700
Zr57       Zr  0.99657034  0.00681191  0.50074025     2.17500
O58         O  0.98991853  0.95800601  0.52816176    -0.51300
O59         O  0.99565774  0.06473215  0.52119135    -0.74500
O60         O  0.06722645  0.02958751  0.51643217    -0.81300
O61         O  0.87164355  0.92475242  0.49178354    -0.83000
O62         O  0.12173433  0.05795154  0.49361797    -0.78600
O63         O  0.92493651  0.95207599  0.51489432    -0.90300
O64         O  0.99542416  0.11887045  0.50192873    -0.76200
O65         O  0.04692706  0.07788154  0.48508133    -0.85700
O66         O  0.95041715  0.02912009  0.48471724    -0.85400
O67         O  0.03918470  0.98887058  0.47920686    -0.72200
O68         O  0.95121296  0.94599858  0.47871240    -0.84300
Zr69       Zr  0.99933995  0.02294765  0.42457321     2.26400
Zr70       Zr  0.08861745  0.06040638  0.46299150     2.06300
Zr71       Zr  0.90618175  0.96926829  0.46216567     2.10000
Zr72       Zr  0.00092491  0.09973596  0.46875489     1.78800
O73         O  0.84487411  0.89239637  0.45406840    -0.93100
O74         O  0.06644472  0.17556454  0.47460851    -0.40900
O75         O  0.95640715  0.04044593  0.44603266    -0.77600
O76         O  0.04423375  0.08490034  0.44640738    -0.96200
O77         O  0.04440401  0.99982346  0.44077564    -0.89600
O78         O  0.94837896  0.95203964  0.44030007    -0.92400
C79         C  0.99453608  0.10175095  0.51861422     1.01400
C80         C  0.88474926  0.92534916  0.50921147     1.14300
C81         C  0.10760851  0.04513762  0.51100050     1.05100
O82         O  0.14475873  0.14044572  0.46962938    -0.94500
O83         O  0.12580745  0.09437260  0.43236291    -0.90300
O84         O  0.07205999  0.07054614  0.40960958    -0.83400
C85         C  0.11294355  0.09335594  0.41490235     1.11700
O86         O  0.98972905  0.87760266  0.48235880    -0.96500
Zr87       Zr  0.99360651  0.92952826  0.45684345     1.88900
O88         O  0.99749342  0.96348959  0.40415709    -0.73200
O89         O  0.14328081  0.03847667  0.45615855    -0.52400
O90         O  0.05546660  0.91632865  0.45470464    -0.97100
O91         O  0.92655716  0.85326478  0.45443352    -0.54300
O92         O  0.99494850  0.90832088  0.42373361    -0.73700
C93         C  0.99609817  0.92520081  0.40697696     0.98700
O94         O  0.99759356  0.06780048  0.39723206    -0.62500
O95         O  0.85517134  0.99485005  0.47108997    -0.57300
O96         O  0.93029739  0.00266613  0.40859403    -0.94000
O97         O  0.87550279  0.97535991  0.43120395    -0.92400
O98         O  0.93714030  0.10994335  0.46771257    -0.92800
O99         O  0.00995389  0.15798168  0.44532050    -0.91600
C100        C  0.88991090  0.98762297  0.41378257     1.17500
H101        H  0.93133543  0.03264605  0.49375029     0.33400
H102        H  0.06311408  0.11315485  0.43930379     0.44300
H103        H  0.92908533  0.92905017  0.43111674     0.37800
H104        H  0.05561714  0.97795658  0.48634754     0.34300
H105        H  0.05450325  0.19455687  0.47939450     0.26100
H106        H  0.17175022  0.06425501  0.46113998     0.32000
H107        H  0.07534089  0.93813753  0.44461192     0.37900
H108        H  0.92170730  0.09777562  0.48023695     0.32400
H109        H  0.82955900  0.97822937  0.46226465     0.31300
H110        H  0.84834838  0.88874924  0.44013398     0.33000
H111        H  0.91671139  0.85075885  0.44088273     0.31900
H112        H  0.01400126  0.14675545  0.43278308     0.35900
H113        H  0.02105775  0.10025343  0.39970741     0.28700
H114        H  0.00355274  0.97893635  0.53927037     0.32900
H115        H  0.98890504  0.85139756  0.47569410     0.35700
H116        H  0.84318502  0.98077973  0.48391210     0.28300
H117        H  0.00838915  0.05835503  0.38600030     0.41200
H118        H  0.13515590  0.15875895  0.46212772     0.31300
H119        H  0.08092220  0.17121447  0.48601271     0.38900
H120        H  0.90382119  0.85552741  0.46199443     0.30700
H121        H  0.13555122  0.01226954  0.46500724     0.30800
H122        H  0.00991463  0.94623287  0.52529855     0.31100
Zr123      Zr  0.99894911  0.01858202  0.92451612     2.17500
O124        O  0.03575531  0.06403843  0.89555710    -0.51300
O125        O  0.93977976  0.96274818  0.90361031    -0.74500
O126        O  0.04602947  0.99532086  0.90845233    -0.81300
O127        O  0.95456460  0.09825579  0.93644004    -0.83000
O128        O  0.06860081  0.96046279  0.92975757    -0.78600
O129        O  0.98753347  0.07964288  0.91288745    -0.90300
O130        O  0.89040276  0.90402194  0.92286491    -0.76200
O131        O  0.97835964  0.94655283  0.93932978    -0.85700
O132        O  0.93058602  0.99442195  0.94106826    -0.85400
O133        O  0.05991724  0.03399051  0.94540166    -0.72200
O134        O  0.01477365  0.07757162  0.94759812    -0.84300
Zr135      Zr  0.98728285  0.99730156  0.00102426     2.26400
Zr136      Zr  0.03742352  0.96156918  0.96100767     2.06300
Zr137      Zr  0.94670541  0.05213524  0.96474622     2.10000
Zr138      Zr  0.91110567  0.92326954  0.95629697     1.78800
O139        O  0.96008846  0.12701338  0.97486010    -0.93100
O140        O  0.90180733  0.84738453  0.95199328    -0.40900
O141        O  0.92619012  0.98048263  0.98011150    -0.77600
O142        O  0.96915739  0.93655351  0.97825309    -0.96200
O143        O  0.05492241  0.02093375  0.98405508    -0.89600
O144        O  0.00707176  0.06877576  0.98587778    -0.92400
C145        C  0.90452061  0.92294056  0.90625953     1.01400
C146        C  0.97087004  0.10295800  0.91941400     1.14300
C147        C  0.06769188  0.97540705  0.91276349     1.05100
O148        O  0.01576381  0.88237819  0.95374419    -0.94500
O149        O  0.03859547  0.92318341  0.99064877    -0.90300
O150        O  0.00916254  0.94520200  0.01443777    -0.83400
C151        C  0.02633340  0.92213278  0.00822359     1.11700
O152        O  0.11729954  0.14557312  0.94258350    -0.96500
Zr153      Zr  0.07425105  0.09195447  0.96861671     1.88900
O154        O  0.04659350  0.05579119  0.02122264    -0.73200
O155        O  0.11525792  0.98693882  0.96674010    -0.52400
O156        O  0.15001389  0.10677354  0.96830554    -0.97100
O157        O  0.08593884  0.16832762  0.97479913    -0.54300
O158        O  0.09980208  0.10945244  0.00138220    -0.73700
C159        C  0.08430139  0.09300742  0.01817580     0.98700
O160        O  0.94488022  0.95666367  0.02990355    -0.62500
O161        O  0.86984069  0.02465548  0.95581672    -0.57300
O162        O  0.93657862  0.01541677  0.01723839    -0.94000
O163        O  0.90981672  0.04523590  0.99539075    -0.92400
O164        O  0.83732953  0.91349447  0.95501005    -0.92800
O165        O  0.85858822  0.86590371  0.97915465    -0.91600
C166        C  0.91163863  0.03135048  0.01247696     1.17500
H167        H  0.90773478  0.99123700  0.93234699     0.33400
H168        H  0.95929716  0.90761874  0.98486517     0.44300
H169        H  0.01104623  0.09149313  0.99530231     0.37800
H170        H  0.08701547  0.04473330  0.93806474     0.34300
H171        H  0.87098018  0.82769156  0.94722296     0.26100
H172        H  0.11849314  0.96123054  0.96208971     0.32000
H173        H  0.14991516  0.08523220  0.97806633     0.37900
H174        H  0.82195859  0.89170670  0.94431848     0.32400
H175        H  0.85167693  0.00007365  0.96537129     0.31300
H176        H  0.93308998  0.12722394  0.97087964     0.33000
H177        H  0.07916349  0.16844250  0.98865753     0.31900
H178        H  0.87224788  0.87758037  0.99194004     0.35900
H179        H  0.93266636  0.92342314  0.02753298     0.28700
H180        H  0.02590509  0.04166622  0.88485624     0.32900
H181        H  0.14324566  0.17198313  0.94885692     0.35700
H182        H  0.86522821  0.05026378  0.95916986     0.28300
H183        H  0.96720564  0.96506781  0.04023901     0.41200
H184        H  0.98819642  0.86307206  0.96133897     0.31300
H185        H  0.92080495  0.85105099  0.94074082     0.38900
H186        H  0.06122092  0.16849716  0.96799537     0.30700
H187        H  0.13215662  0.01219578  0.95727296     0.30800
H188        H  0.06791870  0.07568566  0.89714463     0.31100
C189        C  0.97569952  0.27548340  0.63295830     0.80300
N190        N  0.93692443  0.27144904  0.63918552    -0.78000
C191        C  0.93751791  0.29831147  0.65389780     0.82700
N192        N  0.97694615  0.32966899  0.66198819    -0.78000
C193        C  0.01568840  0.33464119  0.65558015     0.82800
N194        N  0.01466270  0.30750090  0.64110021    -0.79700
C195        C  0.98377826  0.34372154  0.82842238     0.80300
N196        N  0.02368461  0.37899678  0.82191841    -0.78000
C197        C  0.02546934  0.40792543  0.80781518     0.82700
N198        N  0.98701572  0.40102230  0.80006588    -0.78000
C199        C  0.94685454  0.36558983  0.80611068     0.82800
N200        N  0.94557023  0.33710046  0.82032152    -0.79700
C201        C  0.65827145  0.34194828  0.69840155     0.45500
H202        H  0.66055007  0.34105056  0.68244653    -0.03500
C203        C  0.65400081  0.34455691  0.73586377     0.45600
H204        H  0.65178994  0.34556898  0.75182189    -0.03500
C205        C  0.61317689  0.30459054  0.70690450    -0.17200
C206        C  0.69313221  0.33529452  0.70893330    -0.17000
C207        C  0.66497548  0.38766224  0.70599585    -0.17300
C208        C  0.61089521  0.30647732  0.72669140    -0.17300
C209        C  0.69102122  0.33683259  0.72872133    -0.16900
C210        C  0.66338349  0.38907334  0.72576937    -0.17200
C211        C  0.31885482  0.67670795  0.72898393     0.45500
H212        H  0.32088202  0.68308270  0.74475620    -0.03500
C213        C  0.31569249  0.66216201  0.69202664     0.45600
H214        H  0.31448537  0.65561775  0.67630989    -0.03500
C215        C  0.31003491  0.70938256  0.71697885    -0.17200
C216        C  0.36176272  0.68221860  0.72060369    -0.17000
C217        C  0.28159703  0.62832523  0.72324386    -0.17300
C218        C  0.30816288  0.70184295  0.69734822    -0.17300
C219        C  0.36029707  0.67497538  0.70114030    -0.16900
C220        C  0.28102299  0.62000070  0.70378857    -0.17200
C221        C  0.30541750  0.01429712  0.60893527     0.80300
N222        N  0.34128741  0.05274038  0.61634576    -0.78000
C223        C  0.37010468  0.04906587  0.62820628     0.82700
N224        N  0.36228354  0.00662033  0.63287161    -0.78000
C225        C  0.32671140  0.96773911  0.62582947     0.82800
N226        N  0.29830809  0.97176272  0.61370591    -0.79700
C227        C  0.68093131  0.70691533  0.61362807     0.80300
N228        N  0.69177200  0.67748161  0.62208005    -0.78000
C229        C  0.66985032  0.65288097  0.63814043     0.82700
N230        N  0.63651202  0.65726749  0.64549894    -0.78000
C231        C  0.62458599  0.68574309  0.63730419     0.82800
N232        N  0.64711338  0.71069492  0.62133735    -0.79700
C233        C  0.69398355  0.72976107  0.80050679     0.80300
N234        N  0.69606379  0.69294475  0.79411505    -0.78000
C235        C  0.66571000  0.66261140  0.78141580     0.82700
N236        N  0.63327044  0.66970291  0.77502142    -0.78000
C237        C  0.63027613  0.70579119  0.78125646     0.82800
N238        N  0.66056127  0.73577763  0.79410071    -0.79700
C239        C  0.28390242  0.00063523  0.81023204     0.80300
N240        N  0.31483270  0.04330400  0.80330776    -0.78000
C241        C  0.34316493  0.04793310  0.78888187     0.82700
N242        N  0.34116825  0.00981359  0.78170868    -0.78000
C243        C  0.31093893  0.96726484  0.78848626     0.82800
N244        N  0.28199202  0.96268803  0.80256978    -0.79700
C245        C  0.52767775  0.71600673  0.77899225    -0.27600
C246        C  0.51700587  0.70741321  0.75936153     0.02000
C247        C  0.54579965  0.70255380  0.74683615     0.30100
C248        C  0.58377284  0.70431027  0.75411558    -0.19400
C249        C  0.59379444  0.71116750  0.77385805    -0.28800
C250        C  0.56586978  0.71780865  0.78630591     0.44200
C251        C  0.47455354  0.70055303  0.75198153     0.05300
O252        O  0.53697908  0.69618929  0.72743735    -0.57300
H253        H  0.60503360  0.69932936  0.74434542     0.18300
O254        O  0.57429458  0.72363616  0.80572020    -0.64000
H255        H  0.50553163  0.71960964  0.78873696     0.16700
C256        C  0.44003977  0.65607555  0.74684164     0.29000
C257        C  0.40247069  0.65041090  0.73729020    -0.24900
C258        C  0.39886667  0.68873516  0.73285441    -0.24200
C259        C  0.43198274  0.73288197  0.73897971     0.40400
C260        C  0.46989205  0.73868465  0.74839333    -0.26600
O261        O  0.44304715  0.61810741  0.75103916    -0.58500
H262        H  0.37665271  0.61622212  0.73283478     0.16100
O263        O  0.42887689  0.77076045  0.73477152    -0.60000
H264        H  0.49635794  0.77304525  0.75226408     0.14500
H265        H  0.55892915  0.69197358  0.81127957     0.46400
H266        H  0.45001992  0.60889363  0.73860007     0.41800
H267        H  0.40839533  0.77066458  0.74466194     0.45200
H268        H  0.52605797  0.66313945  0.72512061     0.36700
C269        C  0.42973667  0.64252784  0.67074457    -0.27600
C270        C  0.47135593  0.68395154  0.67060895     0.02000
C271        C  0.47538455  0.72308771  0.67963735     0.30100
C272        C  0.43872533  0.71995372  0.68918947    -0.19400
C273        C  0.39771043  0.67814081  0.68987765    -0.28800
C274        C  0.39299771  0.63955434  0.68017627     0.44200
C275        C  0.51076081  0.68512292  0.66200187     0.05300
O276        O  0.51529268  0.76420569  0.67964157    -0.57300
H277        H  0.44244096  0.75015488  0.69628216     0.18300
O278        O  0.35333412  0.59817461  0.68071409    -0.64000
H279        H  0.42587966  0.61219906  0.66371064     0.16700
C280        C  0.52322202  0.65388729  0.66834649     0.29000
C281        C  0.56041724  0.65521932  0.66031520    -0.24900
C282        C  0.58604073  0.68720177  0.64566099    -0.24200
C283        C  0.57375865  0.71896211  0.63946530     0.40400
C284        C  0.53639570  0.71765271  0.64760745    -0.26600
O285        O  0.50015529  0.62296012  0.68295972    -0.58500
H286        H  0.56885587  0.63055814  0.66563846     0.16100
O287        O  0.59764906  0.75126034  0.62544206    -0.60000
H288        H  0.52721670  0.74196078  0.64256310     0.14500
H289        H  0.33807403  0.59715327  0.66852365     0.46400
H290        H  0.48260386  0.59252919  0.67661119     0.41800
H291        H  0.62060320  0.77874759  0.63248527     0.45200
H292        H  0.52983670  0.76424209  0.69191186     0.36700
C293        C  0.27796137  0.77087027  0.75305007    -0.27600
C294        C  0.30469129  0.81702900  0.74712908     0.02000
C295        C  0.33152591  0.82756329  0.73048760     0.30100
C296        C  0.33277994  0.79237969  0.72057756    -0.19400
C297        C  0.30617903  0.74620181  0.72660472    -0.28800
C298        C  0.27806815  0.73558667  0.74278221     0.44200
C299        C  0.30545961  0.85398792  0.75875916     0.05300
O300        O  0.35689144  0.87217925  0.72389013    -0.57300
H301        H  0.35495399  0.80126850  0.70830014     0.18300
O302        O  0.25088906  0.69079026  0.74884778    -0.64000
H303        H  0.25738998  0.76213560  0.76587353     0.16700
C304        C  0.26585409  0.85284851  0.76358201     0.29000
C305        C  0.26778223  0.88904009  0.77409876    -0.24900
C306        C  0.30889144  0.92662967  0.77982984    -0.24200
C307        C  0.34828731  0.92681209  0.77569223     0.40400
C308        C  0.34637175  0.89068089  0.76525795    -0.26600
O309        O  0.22546035  0.81801193  0.75704588    -0.58500
H310        H  0.23727375  0.88868625  0.77704495     0.16100
O311        O  0.38890109  0.96239174  0.78164713    -0.60000
H312        H  0.37699922  0.89141191  0.76213899     0.14500
H313        H  0.22166996  0.68050247  0.74276443     0.46400
H314        H  0.21026856  0.79842111  0.76852773     0.41800
H315        H  0.39229776  0.95415988  0.79503462     0.45200
H316        H  0.33682189  0.87692362  0.71540221     0.36700
C317        C  0.27201749  0.83901126  0.63819325    -0.27600
C318        C  0.30636292  0.83885126  0.64854589     0.02000
C319        C  0.34743447  0.88040636  0.65047921     0.30100
C320        C  0.35369145  0.92114327  0.64233433    -0.19400
C321        C  0.31924232  0.92209914  0.63231907    -0.28800
C322        C  0.27826346  0.88013020  0.62998446     0.44200
C323        C  0.29947607  0.79639886  0.65829179     0.05300
O324        O  0.38144534  0.88192438  0.66088252    -0.57300
H325        H  0.38568059  0.95244322  0.64434697     0.18300
O326        O  0.24347323  0.87905163  0.62049290    -0.64000
H327        H  0.24016068  0.80727564  0.63664689     0.16700
C328        C  0.26832441  0.77539876  0.67340688     0.29000
C329        C  0.26907291  0.74190796  0.68516941    -0.24900
C330        C  0.30164173  0.72999964  0.68249072    -0.24200
C331        C  0.33031499  0.74831252  0.66636306     0.40400
C332        C  0.32888152  0.78099021  0.65439044    -0.26600
O333        O  0.23891857  0.78941906  0.67755159    -0.58500
H334        H  0.24573770  0.72713220  0.69709370     0.16100
O335        O  0.36180077  0.73681463  0.66279419    -0.60000
H336        H  0.35274006  0.79648922  0.64267297     0.14500
H337        H  0.24642972  0.87201340  0.60690231     0.46400
H338        H  0.25406273  0.81392315  0.68735500     0.41800
H339        H  0.38903268  0.76059967  0.66944829     0.45200
H340        H  0.37446319  0.88402774  0.67457229     0.36700
C341        C  0.63781874  0.47199389  0.68305330    -0.27600
C342        C  0.67669323  0.50084831  0.67237055     0.02000
C343        C  0.71017889  0.48966448  0.67136736     0.30100
C344        C  0.70504347  0.45109740  0.68156945    -0.19400
C345        C  0.66729900  0.42414588  0.69314832    -0.28800
C346        C  0.63309090  0.43416538  0.69348625     0.44200
C347        C  0.68210557  0.54365587  0.66350477     0.05300
O348        O  0.74930087  0.51810473  0.66171104    -0.57300
H349        H  0.73164875  0.44374868  0.68130768     0.18300
O350        O  0.59473822  0.40675225  0.70385551    -0.64000
H351        H  0.61134180  0.47951202  0.68367762     0.16700
C352        C  0.68890714  0.55284687  0.64351641     0.29000
C353        C  0.68822277  0.59075209  0.63550274    -0.24900
C354        C  0.67944309  0.61904293  0.64710970    -0.24200
C355        C  0.67461295  0.61092261  0.66720415     0.40400
C356        C  0.67638758  0.57387386  0.67521270    -0.26600
O357        O  0.69366976  0.52360294  0.63154477    -0.58500
H358        H  0.69168772  0.59619527  0.62002389     0.16100
O359        O  0.66804281  0.63902938  0.67916774    -0.60000
H360        H  0.67174124  0.56775655  0.69064340     0.14500
H361        H  0.59423289  0.42669454  0.71414067     0.46400
H362        H  0.66303302  0.50058652  0.62734438     0.41800
H363        H  0.63590379  0.62120563  0.68255974     0.45200
H364        H  0.74864284  0.50055057  0.65019398     0.36700
C365        C  0.63745420  0.55133929  0.75600061    -0.27600
C366        C  0.67144326  0.54461878  0.76247324     0.02000
C367        C  0.70394520  0.57681174  0.77505004     0.30100
C368        C  0.70186661  0.61509369  0.78109107    -0.19400
C369        C  0.66754653  0.62193912  0.77469781    -0.28800
C370        C  0.63518208  0.58933451  0.76193528     0.44200
C371        C  0.67249801  0.50413484  0.75545840     0.05300
O372        O  0.73766899  0.57104649  0.78157606    -0.57300
H373        H  0.72717787  0.63933760  0.79084582     0.18300
O374        O  0.60059894  0.59352924  0.75531169    -0.64000
H375        H  0.61258773  0.52704934  0.74608728     0.16700
C376        C  0.63575509  0.45926014  0.75846767     0.29000
C377        C  0.63413382  0.42179577  0.74930440    -0.24900
C378        C  0.66837781  0.42870039  0.73675897    -0.24200
C379        C  0.70645281  0.47307499  0.73467151     0.40400
C380        C  0.70832732  0.51056563  0.74406390    -0.26600
O381        O  0.60132965  0.45189373  0.77034017    -0.58500
H382        H  0.60517196  0.38754292  0.75134240     0.16100
O383        O  0.74226735  0.47954674  0.72399078    -0.60000
H384        H  0.73704135  0.54490476  0.74188435     0.14500
H385        H  0.61090704  0.60980775  0.74271195     0.46400
H386        H  0.57673288  0.44640568  0.76158380     0.41800
H387        H  0.74793919  0.50344647  0.71416421     0.45200
H388        H  0.72527565  0.55070088  0.79310061     0.36700
C389        C  0.47921552  0.12606984  0.65394182    -0.27600
C390        C  0.47563867  0.16431389  0.65850043     0.02000
C391        C  0.43925295  0.16661327  0.65127316     0.30100
C392        C  0.40615376  0.12994586  0.64049700    -0.19400
C393        C  0.40836568  0.09032533  0.63703145    -0.28800
C394        C  0.44610719  0.08934353  0.64339649     0.44200
C395        C  0.50951179  0.20055367  0.67126538     0.05300
O396        O  0.43479367  0.20363903  0.65527988    -0.57300
H397        H  0.37766527  0.13162917  0.63566244     0.18300
O398        O  0.45075422  0.05228829  0.63971583    -0.64000
H399        H  0.50763148  0.12432567  0.65885431     0.16700
C400        C  0.52111741  0.18852020  0.68889074     0.29000
C401        C  0.55516572  0.22249045  0.70016503    -0.24900
C402        C  0.57696382  0.26916346  0.69464451    -0.24200
C403        C  0.56446344  0.28143664  0.67733298     0.40400
C404        C  0.53137043  0.24721644  0.66568584    -0.26600
O405        O  0.49932210  0.14353917  0.69523867    -0.58500
H406        H  0.56462013  0.21216515  0.71326487     0.16100
O407        O  0.58402294  0.32678523  0.67173693    -0.60000
H408        H  0.52304581  0.25717566  0.65217844     0.14500
H409        H  0.46471144  0.05842424  0.62674243     0.46400
H410        H  0.47579470  0.14060032  0.70411867     0.41800
H411        H  0.56381848  0.33689336  0.67653972     0.45200
H412        H  0.41681094  0.19502579  0.66730353     0.36700
C413        C  0.42403961  0.13975613  0.75417562    -0.27600
C414        C  0.45013992  0.17622997  0.76666911     0.02000
C415        C  0.43773326  0.17254718  0.78622058     0.30100
C416        C  0.40068655  0.13151161  0.79322008    -0.19400
C417        C  0.37659689  0.09368107  0.78093558    -0.28800
C418        C  0.38761548  0.09875428  0.76113392     0.44200
C419        C  0.49241704  0.21533635  0.75913019     0.05300
O420        O  0.46187388  0.20857394  0.79854986    -0.57300
H421        H  0.39234722  0.12840377  0.80842648     0.18300
O422        O  0.36384296  0.06323027  0.74852959    -0.64000
H423        H  0.43318076  0.14234976  0.73907494     0.16700
C424        C  0.53314198  0.21871375  0.76360877     0.29000
C425        C  0.57188743  0.24977337  0.75340843    -0.24900
C426        C  0.57038024  0.27710250  0.73848374    -0.24200
C427        C  0.53020404  0.27560699  0.73474235     0.40400
C428        C  0.49146380  0.24460179  0.74498327    -0.26600
O429        O  0.53491357  0.19019082  0.77726705    -0.58500
H430        H  0.60275358  0.25103838  0.75655183     0.16100
O431        O  0.52878202  0.30469767  0.72126006    -0.60000
H432        H  0.46029670  0.24229428  0.74144675     0.14500
H433        H  0.34025068  0.06823253  0.74342949     0.46400
H434        H  0.52795882  0.16180416  0.77024696     0.41800
H435        H  0.50985031  0.28454393  0.71067091     0.45200
H436        H  0.48136772  0.20044238  0.80570969     0.36700
C437        C  0.82623537  0.30927995  0.78882962    -0.27600
C438        C  0.82951596  0.34314218  0.77599415     0.02000
C439        C  0.87103573  0.38391196  0.77324475     0.30100
C440        C  0.90827987  0.39081936  0.78341235    -0.19400
C441        C  0.90550446  0.35721784  0.79634936    -0.28800
C442        C  0.86378660  0.31591529  0.79893632     0.44200
C443        C  0.78985590  0.33697907  0.76563883     0.05300
O444        O  0.87564669  0.41729041  0.76048059    -0.57300
H445        H  0.93962003  0.42275410  0.78096729     0.18300
O446        O  0.85910629  0.28174341  0.81122461    -0.64000
H447        H  0.79442551  0.27776771  0.79112143     0.16700
C448        C  0.76626022  0.30077696  0.75249557     0.29000
C449        C  0.73314367  0.30007094  0.74088391    -0.24900
C450        C  0.72316087  0.33519350  0.74222895    -0.24200
C451        C  0.74524685  0.36993231  0.75612623     0.40400
C452        C  0.77818941  0.37056524  0.76766157    -0.26600
O453        O  0.77729550  0.26775050  0.75001765    -0.58500
H454        H  0.71597191  0.27265568  0.73049925     0.16100
O455        O  0.73744744  0.40553886  0.75752202    -0.60000
H456        H  0.79595701  0.39851286  0.77778061     0.14500
H457        H  0.86516996  0.26143662  0.80320241     0.46400
H458        H  0.75507612  0.24078084  0.75773411     0.41800
H459        H  0.72018176  0.39961564  0.76963625     0.45200
H460        H  0.88114625  0.40781194  0.74777461     0.36700
C461        C  0.16846734  0.54813465  0.74619302    -0.27600
C462        C  0.18018581  0.53929693  0.76436499     0.02000
C463        C  0.22567177  0.55957517  0.76896178     0.30100
C464        C  0.25843671  0.58821141  0.75543675    -0.19400
C465        C  0.24645746  0.59717817  0.73730349    -0.28800
C466        C  0.20092963  0.57772905  0.73300035     0.44200
C467        C  0.14411061  0.50925049  0.77819350     0.05300
O468        O  0.23844984  0.55202075  0.78662965    -0.57300
H469        H  0.29327502  0.60336019  0.75908302     0.18300
O470        O  0.18760496  0.58797604  0.71605914    -0.64000
H471        H  0.13374194  0.53239279  0.74224928     0.16700
C472        C  0.10928073  0.51737065  0.78198146     0.29000
C473        C  0.07193848  0.48514788  0.79257536    -0.24900
C474        C  0.06848130  0.44448024  0.79962103    -0.24200
C475        C  0.10446005  0.43756869  0.79684608     0.40400
C476        C  0.14195226  0.46989952  0.78620438    -0.26600
O477        O  0.11154793  0.55683255  0.77532577    -0.58500
H478        H  0.04495844  0.49143207  0.79482847     0.16100
O479        O  0.10227519  0.39814153  0.80343232    -0.60000
H480        H  0.16828113  0.46295025  0.78334333     0.14500
H481        H  0.18810427  0.61704248  0.71852701     0.46400
H482        H  0.08869098  0.54665238  0.76507622     0.41800
H483        H  0.08717039  0.37516455  0.79306204     0.45200
H484        H  0.23664693  0.57391534  0.79546703     0.36700
C485        C  0.74730380  0.28499046  0.67844257    -0.27600
C486        C  0.79267389  0.31705584  0.68146902     0.02000
C487        C  0.80506271  0.35718321  0.69218040     0.30100
C488        C  0.77228755  0.36354946  0.70051424    -0.19400
C489        C  0.72704349  0.33025939  0.69835629    -0.28800
C490        C  0.71452571  0.29149177  0.68676196     0.44200
C491        C  0.82690547  0.30737696  0.67436717     0.05300
O492        O  0.84915748  0.39058340  0.69429353    -0.57300
H493        H  0.78219718  0.39409429  0.70902501     0.18300
O494        O  0.67044688  0.25832427  0.68454406    -0.64000
H495        H  0.73731143  0.25406606  0.67020091     0.16700
C496        C  0.85625867  0.30466307  0.68741238     0.29000
C497        C  0.89100930  0.29975242  0.68053479    -0.24900
C498        C  0.89652974  0.29615783  0.66068981    -0.24200
C499        C  0.86559973  0.29605352  0.64768335     0.40400
C500        C  0.83098414  0.30156599  0.65457238    -0.26600
O501        O  0.85183890  0.30775697  0.70692816    -0.58500
H502        H  0.91428237  0.29953388  0.69074984     0.16100
O503        O  0.87021852  0.29302760  0.62819009    -0.60000
H504        H  0.80831385  0.30304554  0.64439712     0.14500
H505        H  0.66131687  0.26650545  0.67234376     0.46400
H506        H  0.82617464  0.27731835  0.71090240     0.41800
H507        H  0.89192167  0.32500150  0.62385061     0.45200
H508        H  0.85590553  0.38972925  0.70813337     0.36700
C509        C  0.20575256  0.49122365  0.69627870    -0.27600
C510        C  0.18208163  0.49083816  0.67996003     0.02000
C511        C  0.19522229  0.53229180  0.66998247     0.30100
C512        C  0.22889077  0.57413286  0.67748168    -0.19400
C513        C  0.25051046  0.57497171  0.69461192    -0.28800
C514        C  0.24078574  0.53286489  0.70328046     0.44200
C515        C  0.14110837  0.44798798  0.67450722     0.05300
O516        O  0.17294672  0.53250547  0.65376290    -0.57300
H517        H  0.23635215  0.60603535  0.67043706     0.18300
O518        O  0.26430611  0.53210278  0.71893033    -0.64000
H519        H  0.19648086  0.45925655  0.70377196     0.16700
C520        C  0.13768561  0.42711718  0.65666649     0.29000
C521        C  0.09696646  0.38928834  0.65101795    -0.24900
C522        C  0.05901940  0.37196509  0.66291876    -0.24200
C523        C  0.06300445  0.39221327  0.68111712     0.40400
C524        C  0.10396077  0.42981849  0.68680250    -0.26600
O525        O  0.17359682  0.44435142  0.64441056    -0.58500
H526        H  0.09484266  0.37453450  0.63695520     0.16100
O527        O  0.02705574  0.37638102  0.69327753    -0.60000
H528        H  0.10641033  0.44589081  0.70058701     0.14500
H529        H  0.29008634  0.53147622  0.71344549     0.46400
H530        H  0.18977127  0.42872979  0.64829207     0.41800
H531        H  0.02567148  0.35023912  0.70046603     0.45200
H532        H  0.19302393  0.53676175  0.64283202     0.36700
C533        C  0.75696350  0.82677254  0.83693926    -0.27600
C534        C  0.79246210  0.82074611  0.84172450     0.02000
C535        C  0.79653662  0.78642902  0.83237053     0.30100
C536        C  0.76472905  0.75781262  0.81886293    -0.19400
C537        C  0.72811264  0.76254138  0.81436056    -0.28800
C538        C  0.72479533  0.79794702  0.82347946     0.44200
C539        C  0.82291601  0.84757889  0.85763821     0.05300
O540        O  0.83118578  0.78006241  0.83661065    -0.57300
H541        H  0.76873486  0.73147922  0.81205307     0.18300
O542        O  0.69006296  0.80443618  0.81965525    -0.64000
H543        H  0.75334331  0.85293987  0.84416147     0.16700
C544        C  0.85111864  0.89587621  0.85653262     0.29000
C545        C  0.87847024  0.92015857  0.87220838    -0.24900
C546        C  0.87773557  0.89680740  0.88923029    -0.24200
C547        C  0.84989241  0.84819108  0.89002876     0.40400
C548        C  0.82311410  0.82415702  0.87431827    -0.26600
O549        O  0.85196485  0.91962848  0.84026920    -0.58500
H550        H  0.89952841  0.95738135  0.87119525     0.16100
O551        O  0.84931230  0.82352724  0.90593157    -0.60000
H552        H  0.80177452  0.78693697  0.87528436     0.14500
H553        H  0.66700450  0.78558900  0.82947380     0.46400
H554        H  0.87165620  0.91615454  0.83105724     0.41800
H555        H  0.82250933  0.81703854  0.91339069     0.45200
H556        H  0.85518521  0.80020218  0.82736659     0.36700
C557        C  0.12012432  0.98165662  0.86377095    -0.27600
C558        C  0.15530391  0.97562297  0.86902711     0.02000
C559        C  0.15961157  0.96589654  0.88836667     0.30100
C560        C  0.12982151  0.96403167  0.90234435    -0.19400
C561        C  0.09525266  0.97171045  0.89731510    -0.28800
C562        C  0.08997329  0.97931328  0.87763398     0.44200
C563        C  0.18850106  0.98171454  0.85433137     0.05300
O564        O  0.19439430  0.96086848  0.89391414    -0.57300
H565        H  0.13492530  0.95827636  0.91726765     0.18300
O566        O  0.05612716  0.98555675  0.87175201    -0.64000
H567        H  0.11635837  0.98877388  0.84885078     0.16700
C568        C  0.18898933  0.94365224  0.84673874     0.29000
C569        C  0.22038417  0.95036305  0.83260167    -0.21100
C570        C  0.25182017  0.99499681  0.82572312    -0.24200
C571        C  0.25138643  0.03317222  0.83368236     0.40400
C572        C  0.21964474  0.02619475  0.84768768    -0.26600
O573        O  0.15872712  0.89972403  0.85296672    -0.58500
H574        H  0.21974276  0.92028862  0.82694586     0.16100
O575        O  0.28124597  0.07748220  0.82776654    -0.60000
H576        H  0.21946866  0.05574370  0.85348949     0.14500
H577        H  0.03076336  0.95412582  0.86898745     0.46400
H578        H  0.13213545  0.88948096  0.84474617     0.41800
H579        H  0.30654781  0.08883719  0.83686378     0.45200
H580        H  0.18315142  0.92743514  0.89269537     0.36700
C581        C  0.01628338  0.28705768  0.86755431    -0.27600
C582        C  0.97724752  0.24353641  0.86919103     0.02000
C583        C  0.93989462  0.23405956  0.85809574     0.30100
C584        C  0.94219621  0.26746128  0.84538480    -0.19400
C585        C  0.98175366  0.31057570  0.84315741    -0.28800
C586        C  0.01895345  0.32029652  0.85458271     0.44200
C587        C  0.97604084  0.20794927  0.88219871     0.05300
O588        O  0.90124526  0.19178979  0.85919500    -0.57300
H589        H  0.91311481  0.25884078  0.83682657     0.18300
O590        O  0.05781863  0.36238092  0.85352845    -0.64000
H591        H  0.04498584  0.29528830  0.87632459     0.16700
C592        C  0.00830322  0.19522032  0.88068577     0.29000
C593        C  0.00584405  0.16062029  0.89272384    -0.24900
C594        C  0.97178856  0.13857224  0.90659139    -0.24200
C595        C  0.93965268  0.15154571  0.90816685     0.40400
C596        C  0.94190164  0.18585663  0.89599234    -0.26600
O597        O  0.04122750  0.21501303  0.86691464    -0.58500
H598        H  0.03098814  0.15134070  0.89129480     0.16100
O599        O  0.90482660  0.12955709  0.92096466    -0.60000
H600        H  0.91686162  0.19529457  0.89735410     0.14500
H601        H  0.07806168  0.35736904  0.84530343     0.46400
H602        H  0.06881199  0.23639791  0.87402950     0.41800
H603        H  0.91302957  0.15085008  0.93202757     0.45200
H604        H  0.90503227  0.17225525  0.84971830     0.36700
C605        C  0.71975205  0.78885753  0.56984897    -0.27600
C606        C  0.76053322  0.79259274  0.56550086     0.02000
C607        C  0.77374449  0.76634873  0.57627855     0.30100
C608        C  0.74709814  0.73807190  0.59149293    -0.19400
C609        C  0.70681082  0.73527796  0.59645470    -0.28800
C610        C  0.69294546  0.76057080  0.58512888     0.44200
C611        C  0.79100899  0.82668431  0.55087347     0.05300
O612        O  0.81336050  0.76902270  0.57237402    -0.57300
H613        H  0.75877500  0.71910418  0.59971864     0.18300
O614        O  0.65380791  0.75885234  0.58902982    -0.64000
H615        H  0.70926384  0.80903574  0.56172805     0.16700
C616        C  0.77981500  0.82307342  0.53120441     0.29000
C617        C  0.81019315  0.85556792  0.51781188    -0.24900
C618        C  0.85199463  0.89235487  0.52375054    -0.24200
C619        C  0.86259674  0.89592481  0.54364301     0.40400
C620        C  0.83225896  0.86340270  0.55687459    -0.26600
O621        O  0.74010817  0.78681815  0.52483117    -0.58500
H622        H  0.80117625  0.85143563  0.50270014     0.16100
O623        O  0.90215337  0.93157198  0.55049632    -0.60000
H624        H  0.84107476  0.86691006  0.57201421     0.14500
H625        H  0.63136532  0.73432697  0.58057143     0.46400
H626        H  0.72015709  0.79930709  0.52350721     0.41800
H627        H  0.92017548  0.91759784  0.55378848     0.45200
H628        H  0.80765553  0.74980326  0.56076352     0.36700
C629        C  0.98253137  0.13182301  0.57052995    -0.27600
C630        C  0.98425779  0.17379022  0.56788458     0.02000
C631        C  0.99004012  0.19238333  0.54918290     0.30100
C632        C  0.99388288  0.16894729  0.53341255    -0.19400
C633        C  0.99149749  0.12630972  0.53586020    -0.28800
C634        C  0.98552933  0.10781733  0.55476666     0.44200
C635        C  0.98081940  0.19829488  0.58480811     0.05300
O636        O  0.99360480  0.23430582  0.54628362    -0.57300
H637        H  0.99874688  0.18441201  0.51920472     0.18300
O638        O  0.98249064  0.06631295  0.55812330    -0.64000
H639        H  0.97819176  0.11725625  0.58490467     0.16700
C640        C  0.94427824  0.20431037  0.58721585     0.29000
C641        C  0.94230612  0.22851112  0.60314976    -0.24900
C642        C  0.97654750  0.24705350  0.61690551    -0.24200
C643        C  0.01254740  0.23969439  0.61467719     0.40400
C644        C  0.01437810  0.21556425  0.59875488    -0.26600
O645        O  0.91039395  0.18681415  0.57402272    -0.58500
H646        H  0.91434530  0.23353871  0.60451724     0.16100
O647        O  0.04636306  0.25602305  0.62790395    -0.60000
H648        H  0.04243380  0.21073564  0.59716322     0.14500
H649        H  0.95024148  0.04286050  0.55734651     0.46400
H650        H  0.89096056  0.15377054  0.57758138     0.41800
H651        H  0.03521427  0.23236563  0.63832489     0.45200
H652        H  0.96387110  0.22693257  0.54170173     0.36700
C653        C  0.20065342  0.03497538  0.53413692    -0.27600
C654        C  0.19231533  0.03595736  0.55388251     0.02000
C655        C  0.15760325  0.04303703  0.55944249     0.30100
C656        C  0.13134339  0.04769692  0.54538874    -0.19400
C657        C  0.13901863  0.04556738  0.52558820    -0.28800
C658        C  0.17446402  0.03956321  0.52009228     0.44200
C659        C  0.21983530  0.02919195  0.56843024     0.05300
O660        O  0.14830165  0.04437118  0.57856937    -0.57300
H661        H  0.10432823  0.05217399  0.55002884     0.18300
O662        O  0.18215976  0.03514185  0.50105901    -0.64000
H663        H  0.22751090  0.03024134  0.52951910     0.16700
C664        C  0.22619837  0.99136011  0.56736599     0.29000
C665        C  0.25313598  0.98629841  0.58091362    -0.24900
C666        C  0.27489331  0.01898670  0.59550992    -0.24200
C667        C  0.26806744  0.05652431  0.59671026     0.40400
C668        C  0.24066510  0.06122737  0.58332239    -0.26600
O669        O  0.20508898  0.95835446  0.55347276    -0.58500
H670        H  0.25770531  0.95711283  0.57972257     0.16100
O671        O  0.28682128  0.08804519  0.61129431    -0.60000
H672        H  0.23629034  0.09054947  0.58441443     0.14500
H673        H  0.20652768  0.06623365  0.49696942     0.46400
H674        H  0.22882429  0.96320989  0.54426672     0.41800
H675        H  0.31311206  0.11533708  0.60539769     0.45200
H676        H  0.13025733  0.01161559  0.58276065     0.36700
C677        C  0.23418294  0.25415386  0.35287061    -0.27600
C678        C  0.24188161  0.21947290  0.35910777     0.02000
C679        C  0.27879373  0.21852521  0.35194315     0.30100
C680        C  0.30770781  0.25229700  0.33872479    -0.19400
C681        C  0.30066259  0.28780829  0.33254931    -0.28800
C682        C  0.26306680  0.28813095  0.33973124     0.44200
C683        C  0.21068117  0.18434926  0.37301488     0.05300
O684        O  0.28608699  0.18393601  0.35735151    -0.57300
H685        H  0.33583595  0.25058849  0.33339642     0.18300
O686        O  0.25435313  0.32170624  0.33431920    -0.64000
H687        H  0.20568584  0.25502563  0.35833874     0.16700
C688        C  0.22284840  0.18458213  0.39234414     0.29000
C689        C  0.19131444  0.15356360  0.40567196    -0.24900
C690        C  0.14716613  0.12201724  0.40002550    -0.24200
C691        C  0.13588607  0.12082422  0.38030994     0.40400
C692        C  0.16740134  0.15213883  0.36711974    -0.26600
O693        O  0.26508496  0.21596016  0.39846838    -0.58500
H694        H  0.20120676  0.15538087  0.42059452     0.16100
O695        O  0.09387525  0.09018626  0.37374422    -0.60000
H696        H  0.15784504  0.15168704  0.35221671     0.14500
H697        H  0.23340043  0.30845014  0.32334808     0.46400
H698        H  0.26446951  0.24418262  0.40156302     0.41800
H699        H  0.09453319  0.06224384  0.37014618     0.45200
H700        H  0.30843654  0.19720660  0.36781720     0.36700
C701        C  0.79048529  0.04003067  0.34645223    -0.27600
C702        C  0.77612316  0.99685002  0.35506723     0.02000
C703        C  0.73448732  0.95890482  0.34986254     0.30100
C704        C  0.70774273  0.96449926  0.33646714    -0.19400
C705        C  0.72166153  0.00781980  0.32792275    -0.28800
C706        C  0.76369718  0.04579633  0.33306562     0.44200
C707        C  0.80439577  0.99189271  0.36970980     0.05300
O708        O  0.71960410  0.91605793  0.35776553    -0.57300
H709        H  0.67571582  0.93464185  0.33290606     0.18300
O710        O  0.77957474  0.08846507  0.32479426    -0.64000
H711        H  0.82242506  0.06963944  0.35032575     0.16700
C712        C  0.84817631  0.00364439  0.36531104     0.29000
C713        C  0.87484024  0.00048583  0.37956818    -0.24900
C714        C  0.85886722  0.98608850  0.39856982    -0.24200
C715        C  0.81426591  0.97278650  0.40269295     0.40400
C716        C  0.78767033  0.97595619  0.38837102    -0.26600
O717        O  0.86482171  0.01717910  0.34695922    -0.58500
H718        H  0.90851670  0.01017179  0.37569329     0.16100
O719        O  0.79649384  0.95786917  0.42077567    -0.60000
H720        H  0.75396819  0.96670823  0.39197503     0.14500
H721        H  0.77208733  0.10562222  0.33407935     0.46400
H722        H  0.88466015  0.05120499  0.34752710     0.41800
H723        H  0.78098596  0.92370932  0.42029172     0.45200
H724        H  0.73384454  0.90268652  0.34997413     0.36700
C725        C  0.99027688  0.88226655  0.35548733    -0.27600
C726        C  0.99673278  0.84515697  0.35874228     0.02000
C727        C  0.00207020  0.83417778  0.37776695     0.30100
C728        C  0.00191822  0.86058839  0.39310884    -0.19400
C729        C  0.99593490  0.89820585  0.39002613    -0.28800
C730        C  0.98960304  0.90857387  0.37091038     0.44200
C731        C  0.99878142  0.81835505  0.34234792     0.05300
O732        O  0.00744321  0.79751821  0.38156053    -0.57300
H733        H  0.00665296  0.85139478  0.40753205     0.18300
O734        O  0.98301229  0.94438005  0.36704050    -0.64000
H735        H  0.98625698  0.89123933  0.34090781     0.16700
C736        C  0.96344695  0.79611768  0.32918967     0.29000
C737        C  0.96539287  0.76899459  0.31449316    -0.24900
C738        C  0.00252904  0.76387022  0.31250448    -0.24200
C739        C  0.03790052  0.78631731  0.32572504     0.40400
C740        C  0.03594058  0.81347942  0.34034216    -0.26600
O741        O  0.92599638  0.79889886  0.33113975    -0.58500
H742        H  0.93766089  0.75196964  0.30460874     0.16100
O743        O  0.07414565  0.78119816  0.32485501    -0.60000
H744        H  0.06343525  0.83042728  0.35035299     0.14500
H745        H  0.95021186  0.93030830  0.36695258     0.46400
H746        H  0.92868912  0.82109071  0.32102963     0.41800
H747        H  0.06564618  0.75298376  0.33255457     0.45200
H748        H  0.97693140  0.76991568  0.38145943     0.36700
C749        C  0.79833684  0.05112097  0.08506662    -0.27600
C750        C  0.78647309  0.01772870  0.07075062     0.02000
C751        C  0.74360640  0.97772901  0.07128368     0.30100
C752        C  0.71311383  0.97208158  0.08575992    -0.19400
C753        C  0.72444304  0.00621717  0.09974506    -0.28800
C754        C  0.76791668  0.04568165  0.09944826     0.44200
C755        C  0.81959449  0.02439052  0.05571250     0.05300
O756        O  0.73184086  0.94326171  0.05810458    -0.57300
H757        H  0.68017371  0.94134066  0.08574070     0.18300
O758        O  0.78126690  0.07927673  0.11315962    -0.64000
H759        H  0.83133636  0.08180825  0.08500850     0.16700
C760        C  0.81037710  0.02423708  0.03592420     0.29000
C761        C  0.84115529  0.02793827  0.02204058    -0.24900
C762        C  0.88166924  0.03203275  0.02751477    -0.24200
C763        C  0.89171125  0.03439560  0.04736299     0.40400
C764        C  0.86094942  0.03092228  0.06122510    -0.26600
O765        O  0.77124814  0.02022153  0.02998269    -0.58500
H766        H  0.83270720  0.02640210  0.00692045     0.16100
O767        O  0.93184758  0.04102479  0.05338166    -0.60000
H768        H  0.86901253  0.03221925  0.07638597     0.14500
H769        H  0.79152321  0.06838406  0.12418787     0.46400
H770        H  0.77692221  0.05211998  0.03004746     0.41800
H771        H  0.92543469  0.01018936  0.05772866     0.45200
H772        H  0.70901285  0.94365587  0.04980619     0.36700
C773        C  0.03086887  0.86387002  0.05475051    -0.27600
C774        C  0.03138709  0.82556428  0.04755476     0.02000
C775        C  0.03254604  0.82040365  0.02748976     0.30100
C776        C  0.03209008  0.85269339  0.01490840    -0.19400
C777        C  0.03032916  0.89057948  0.02201123    -0.28800
C778        C  0.03006326  0.89608629  0.04220814     0.44200
C779        C  0.02899149  0.79029432  0.06109172     0.05300
O780        O  0.03370809  0.78361812  0.02003627    -0.57300
H781        H  0.03207904  0.84737086  0.99951384     0.18300
O782        O  0.02983901  0.93321692  0.04987424    -0.64000
H783        H  0.03003530  0.86826417  0.07018549     0.16700
C784        C  0.06213548  0.80176897  0.07505369     0.29000
C785        C  0.05859937  0.76796477  0.08794383    -0.24900
C786        C  0.02168712  0.72263101  0.08743377    -0.24200
C787        C  0.98858611  0.71119535  0.07336308     0.40400
C788        C  0.99260214  0.74485415  0.06026742    -0.26600
O789        O  0.09875717  0.84558863  0.07579259    -0.58500
H790        H  0.08452891  0.77750502  0.09856994     0.16100
O791        O  0.95313655  0.66684849  0.07176596    -0.60000
H792        H  0.96691588  0.73556656  0.04954017     0.14500
H793        H  0.99928101  0.92062741  0.05503879     0.46400
H794        H  0.09338647  0.86034350  0.08692836     0.41800
H795        H  0.92760167  0.66712825  0.07775467     0.45200
H796        H  0.06580061  0.79420195  0.01897293     0.36700
C797        C  0.18067927  0.63753812  0.18164557    -0.27600
C798        C  0.19533005  0.66815209  0.16583599     0.02000
C799        C  0.24121933  0.69975818  0.16327089     0.30100
C800        C  0.27170612  0.70049250  0.17646406    -0.19400
C801        C  0.25690276  0.67006495  0.19228315    -0.28800
C802        C  0.21116500  0.63799229  0.19470846     0.44200
C803        C  0.16214490  0.66727684  0.15245533     0.05300
O804        O  0.25654380  0.72985063  0.14789214    -0.57300
H805        H  0.30697168  0.72501844  0.17442999     0.18300
O806        O  0.19603523  0.60679190  0.20970308    -0.64000
H807        H  0.14544457  0.61332506  0.18391084     0.16700
C808        C  0.13030569  0.62590080  0.14358026     0.29000
C809        C  0.09578367  0.62441009  0.13291085    -0.24900
C810        C  0.09300420  0.66404355  0.13066657    -0.24200
C811        C  0.12618539  0.70601533  0.13865467     0.40400
C812        C  0.16038607  0.70737425  0.14955210    -0.26600
O813        O  0.13315003  0.58705160  0.14507670    -0.58500
H814        H  0.07067948  0.59202210  0.12662770     0.16100
O815        O  0.12418484  0.74525945  0.13676170    -0.60000
H816        H  0.18455773  0.73937242  0.15639651     0.14500
H817        H  0.19452672  0.57883499  0.20446644     0.46400
H818        H  0.10870882  0.56594831  0.15395252     0.41800
H819        H  0.10579291  0.74443808  0.14780380     0.45200
H820        H  0.25936771  0.71235065  0.13713729     0.36700
C821        C  0.20139078  0.67398395  0.25797694    -0.27600
C822        C  0.19653011  0.70917727  0.24981894     0.02000
C823        C  0.22507743  0.73658890  0.23479548     0.30100
C824        C  0.25696593  0.72754169  0.22760151    -0.19400
C825        C  0.26014429  0.69061689  0.23495011    -0.28800
C826        C  0.23297302  0.66451575  0.25058647     0.44200
C827        C  0.15919978  0.71449082  0.25594346     0.05300
O828        O  0.22187640  0.77219592  0.22708767    -0.57300
H829        H  0.27850768  0.74863471  0.21587807     0.18300
O830        O  0.23564865  0.62848303  0.25814039    -0.64000
H831        H  0.17939387  0.65261973  0.26953606     0.16700
C832        C  0.12304326  0.70159594  0.24351374     0.29000
C833        C  0.08655222  0.70411841  0.24977585    -0.24900
C834        C  0.08520965  0.71921052  0.26848767    -0.24200
C835        C  0.12226018  0.73360941  0.28069178     0.40400
C836        C  0.15870071  0.73066599  0.27443118    -0.26600
O837        O  0.12254702  0.68526704  0.22538935    -0.58500
H838        H  0.05866862  0.69309490  0.24007663     0.16100
O839        O  0.12212711  0.74781346  0.29914449    -0.60000
H840        H  0.18639911  0.74046321  0.28410622     0.14500
H841        H  0.21368570  0.60098499  0.25080512     0.46400
H842        H  0.11192926  0.65205542  0.22724482     0.41800
H843        H  0.13896754  0.78202011  0.29840000     0.45200
H844        H  0.20651565  0.76064810  0.21456431     0.36700
C845        C  0.45860862  0.75574011  0.16690512    -0.27600
C846        C  0.47372478  0.80296324  0.16838567     0.02000
C847        C  0.45376129  0.81737836  0.18209059     0.30100
C848        C  0.41943663  0.78498850  0.19392611    -0.19400
C849        C  0.40520997  0.73802535  0.19283887    -0.28800
C850        C  0.42466498  0.72331606  0.17909352     0.44200
C851        C  0.51061403  0.83744588  0.15592367     0.05300
O852        O  0.46810146  0.86324319  0.18427944    -0.57300
H853        H  0.40419202  0.79672086  0.20419725     0.18300
O854        O  0.41113335  0.67750468  0.17765925    -0.64000
H855        H  0.47328092  0.74400577  0.15635153     0.16700
C856        C  0.55238158  0.84068449  0.15535047     0.29000
C857        C  0.58849122  0.87786110  0.14568422    -0.24900
C858        C  0.58361703  0.91249102  0.13694235    -0.24200
C859        C  0.54127730  0.90776389  0.13666740     0.40400
C860        C  0.50519073  0.87024780  0.14585058    -0.26600
O861        O  0.55899103  0.80940046  0.16515525    -0.58500
H862        H  0.62096423  0.88136541  0.14622777     0.16100
O863        O  0.53534125  0.94109643  0.12835953    -0.60000
H864        H  0.47318992  0.86789663  0.14585703     0.14500
H865        H  0.43626274  0.67507851  0.18273806     0.46400
H866        H  0.56495304  0.82033444  0.17867647     0.41800
H867        H  0.53355649  0.93521648  0.11430070     0.45200
H868        H  0.49184988  0.87455445  0.19415953     0.36700
C869        C  0.54716710  0.85214585  0.27819078    -0.27600
C870        C  0.52067038  0.85898843  0.26506156     0.02000
C871        C  0.52988709  0.90388666  0.26132159     0.30100
C872        C  0.56456366  0.94118133  0.27092444    -0.19400
C873        C  0.59130940  0.93489984  0.28427201    -0.28800
C874        C  0.58219144  0.88962904  0.28785840     0.44200
C875        C  0.48232299  0.81929408  0.25573665     0.05300
O876        O  0.50511393  0.91167063  0.24822555    -0.57300
H877        H  0.57051186  0.97527201  0.26769087     0.18300
O878        O  0.60721989  0.88143395  0.30061676    -0.64000
H879        H  0.54017000  0.81755385  0.28119372     0.16700
C880        C  0.48811313  0.79019175  0.24327563     0.29000
C881        C  0.45127086  0.75449149  0.23380023    -0.24900
C882        C  0.40859785  0.74770166  0.23651709    -0.24200
C883        C  0.40286143  0.77657452  0.24913679     0.40400
C884        C  0.43955496  0.81189940  0.25871581    -0.26600
O885        O  0.52984416  0.79793411  0.23952513    -0.58500
H886        H  0.45606863  0.73239593  0.22413265     0.16100
O887        O  0.36180597  0.77149829  0.25177542    -0.60000
H888        H  0.43479731  0.83421800  0.26826588     0.14500
H889        H  0.59164848  0.87555610  0.31320206     0.46400
H890        H  0.53216790  0.77474224  0.24742318     0.41800
H891        H  0.35809365  0.78794539  0.24071646     0.45200
H892        H  0.52095557  0.91715163  0.23573220     0.36700
C893        C  0.37798742  0.50171896  0.27519516    -0.27600
C894        C  0.33756381  0.49960405  0.27842481     0.02000
C895        C  0.30454024  0.46336008  0.28978395     0.30100
C896        C  0.31178359  0.42926947  0.29728067    -0.19400
C897        C  0.35195519  0.43068927  0.29370933    -0.28800
C898        C  0.38550675  0.46800101  0.28272212     0.44200
C899        C  0.32946807  0.53363726  0.26865412     0.05300
O900        O  0.26483014  0.46062147  0.29345169    -0.57300
H901        H  0.28548396  0.40126765  0.30564845     0.18300
O902        O  0.42602639  0.47231985  0.27928636    -0.64000
H903        H  0.40356070  0.52900259  0.26627689     0.16700
C904        C  0.36065814  0.58139077  0.26975519     0.29000
C905        C  0.35566585  0.61230311  0.25808700    -0.24900
C906        C  0.32014073  0.59613542  0.24511262    -0.24200
C907        C  0.28707100  0.54893971  0.24514250     0.40400
C908        C  0.29218503  0.51796812  0.25666175    -0.26600
O909        O  0.39611430  0.59797960  0.28214539    -0.58500
H910        H  0.38091575  0.64871440  0.25844801     0.16100
O911        O  0.25045567  0.53252371  0.23348779    -0.60000
H912        H  0.26785700  0.48139773  0.25563753     0.14500
H913        H  0.42399512  0.46034691  0.26606720     0.46400
H914        H  0.42283210  0.60923002  0.27381405     0.41800
H915        H  0.22945038  0.53852589  0.24058442     0.45200
H916        H  0.27057201  0.48066226  0.30477866     0.36700
C917        C  0.85249790  0.56463535  0.27087641    -0.27600
C918        C  0.85054339  0.55650755  0.25096409     0.02000
C919        C  0.88392427  0.58990233  0.23875937     0.30100
C920        C  0.92019027  0.62927537  0.24665202    -0.19400
C921        C  0.92330986  0.63638595  0.26662339    -0.28800
C922        C  0.88867725  0.60434311  0.27875865     0.44200
C923        C  0.81424356  0.51272897  0.24300071     0.05300
O924        O  0.88064160  0.58472036  0.21908390    -0.57300
H925        H  0.94630600  0.65410422  0.23714349     0.18300
O926        O  0.89090862  0.61038518  0.29836319    -0.64000
H927        H  0.82675510  0.53935833  0.28038845     0.16700
C928        C  0.82386165  0.48444222  0.23170499     0.29000
C929        C  0.78939246  0.44521913  0.22292812    -0.24900
C930        C  0.74512407  0.43316097  0.22560795    -0.24200
C931        C  0.73519050  0.45970404  0.23781453     0.40400
C932        C  0.76973201  0.49936319  0.24641206    -0.26600
O933        O  0.86687266  0.49487770  0.22916446    -0.58500
H934        H  0.79716461  0.42419586  0.21395824     0.16100
O935        O  0.69194931  0.44788197  0.24098292    -0.60000
H936        H  0.76184202  0.52039578  0.25531025     0.14500
H937        H  0.90497202  0.59342462  0.30335736     0.46400
H938        H  0.87307723  0.48095290  0.24045493     0.41800
H939        H  0.68527442  0.46340777  0.23048905     0.45200
H940        H  0.90577733  0.58104181  0.21509246     0.36700
C941        C  0.79269366  0.43769606  0.15622580    -0.27600
C942        C  0.81027662  0.48526160  0.15826711     0.02000
C943        C  0.79037424  0.50054231  0.17162232     0.30100
C944        C  0.75456959  0.46850126  0.18304072    -0.19400
C945        C  0.73916960  0.42120218  0.18188171    -0.28800
C946        C  0.75810810  0.40587543  0.16813430     0.44200
C947        C  0.85118510  0.51849589  0.14744530     0.05300
O948        O  0.80674115  0.54672413  0.17421432    -0.57300
H949        H  0.73991177  0.48077558  0.19335669     0.18300
O950        O  0.74462614  0.36007292  0.16681939    -0.64000
H951        H  0.80690372  0.42517155  0.14580361     0.16700
C952        C  0.88903389  0.51418869  0.14772898     0.29000
C953        C  0.92822731  0.54724183  0.13848360    -0.24900
C954        C  0.93098551  0.58544727  0.12897221    -0.24200
C955        C  0.89292400  0.58952383  0.12853717     0.40400
C956        C  0.85334041  0.55586226  0.13748206    -0.26600
O957        O  0.88901314  0.47949155  0.15810835    -0.58500
H958        H  0.95695899  0.54334105  0.13919747     0.16100
O959        O  0.89431915  0.62699619  0.12008762    -0.60000
H960        H  0.82447356  0.55955066  0.13699201     0.14500
H961        H  0.76427434  0.35575399  0.17575810     0.46400
H962        H  0.88905999  0.45820436  0.14835930     0.41800
H963        H  0.90342326  0.65005061  0.13052300     0.45200
H964        H  0.83242565  0.55727088  0.18303215     0.36700
C965        C  0.54725832  0.37420477  0.24051427    -0.27600
C966        C  0.53654031  0.34974905  0.25804773     0.02000
C967        C  0.55653496  0.32410614  0.26272320     0.30100
C968        C  0.58602384  0.32235695  0.24971932    -0.19400
C969        C  0.59683845  0.34692706  0.23220593    -0.28800
C970        C  0.57810926  0.37405913  0.22789362     0.44200
C971        C  0.50392317  0.35091092  0.27109833     0.05300
O972        O  0.54775523  0.30099486  0.28001363    -0.57300
H973        H  0.60052922  0.30175514  0.25335228     0.18300
O974        O  0.58997138  0.40088557  0.21151512    -0.64000
H975        H  0.53183161  0.39376824  0.23661349     0.16700
C976        C  0.50864775  0.39323876  0.27638980     0.29000
C977        C  0.47476580  0.39365066  0.28673020    -0.24900
C978        C  0.43585382  0.35224117  0.29195272    -0.24200
C979        C  0.43231902  0.30984000  0.28768557     0.40400
C980        C  0.46623335  0.30943503  0.27724302    -0.26600
O981        O  0.54646624  0.43430151  0.27162669    -0.58500
H982        H  0.47853572  0.42661762  0.29027404     0.16100
O983        O  0.39511255  0.26867717  0.29280432    -0.60000
H984        H  0.46216654  0.27660509  0.27321071     0.14500
H985        H  0.61234895  0.43251602  0.21571434     0.46400
H986        H  0.53724331  0.44859248  0.26155054     0.41800
H987        H  0.37508957  0.25965971  0.28148950     0.45200
H988        H  0.56950516  0.32394992  0.28918627     0.36700
C989        C  0.63886886  0.14320420  0.27983448    -0.27600
C990        C  0.67839010  0.17632235  0.27062678     0.02000
C991        C  0.71713143  0.17392136  0.27298586     0.30100
C992        C  0.71499193  0.13692284  0.28327360    -0.19400
C993        C  0.67434621  0.10174873  0.29095416    -0.28800
C994        C  0.63652443  0.10598690  0.28973332     0.44200
C995        C  0.67753486  0.21073009  0.25748359     0.05300
O996        O  0.75652067  0.20591962  0.26436195    -0.57300
H997        H  0.74425873  0.13395143  0.28398871     0.18300
O998        O  0.59636319  0.07251060  0.29729758    -0.64000
H999        H  0.60910309  0.14517630  0.27867877     0.16700
C1000       C  0.64507936  0.19628426  0.24287366     0.29000
C1001       C  0.64425413  0.22880535  0.23064188    -0.24900
C1002       C  0.67589619  0.27595071  0.23242867    -0.24200
C1003       C  0.70836919  0.29054543  0.24697754     0.40400
C1004       C  0.70892831  0.25803972  0.25942171    -0.26600
O1005       O  0.61516791  0.15023036  0.23992958    -0.58500
H1006       H  0.61871479  0.21704087  0.21968149     0.16100
O1007       O  0.73995175  0.33640356  0.24906597    -0.60000
H1008       H  0.73385738  0.26981340  0.27064828     0.14500
H1009       H  0.59752118  0.08028344  0.31113357     0.46400
H1010       H  0.58592898  0.14501854  0.24423047     0.41800
H1011       H  0.76295136  0.34302156  0.23915441     0.45200
H1012       H  0.75465588  0.19493324  0.25097233     0.36700
C1013       C  0.63802874  0.20837414  0.16404336    -0.27600
C1014       C  0.67115183  0.19779735  0.16741778     0.02000
C1015       C  0.70493082  0.22367592  0.18089138     0.30100
C1016       C  0.70459903  0.25890877  0.19111145    -0.19400
C1017       C  0.67046977  0.26828281  0.18825428    -0.28800
C1018       C  0.63733718  0.24312261  0.17442144     0.44200
C1019       C  0.66832969  0.15766621  0.15779786     0.05300
O1020       O  0.73774746  0.21405768  0.18447927    -0.57300
H1021       H  0.73080988  0.27868907  0.20141693     0.18300
O1022       O  0.60346164  0.25134716  0.17125611    -0.64000
H1023       H  0.61203852  0.18887936  0.15360662     0.16700
C1024       C  0.62994548  0.11365548  0.15992538     0.29000
C1025       C  0.62816076  0.07553613  0.15144971    -0.24900
C1026       C  0.66459005  0.08015198  0.14091267    -0.24200
C1027       C  0.70293769  0.12458909  0.13863839     0.40400
C1028       C  0.70441019  0.16287830  0.14697861    -0.26600
O1029       O  0.59425249  0.10735034  0.17061803    -0.58500
H1030       H  0.59813194  0.04209699  0.15342695     0.16100
O1031       O  0.73933236  0.13119404  0.12847741    -0.60000
H1032       H  0.73402399  0.19673658  0.14515166     0.14500
H1033       H  0.58026798  0.23209393  0.18095462     0.46400
H1034       H  0.60144626  0.10414360  0.18416060     0.41800
H1035       H  0.75983213  0.13121308  0.13833220     0.45200
H1036       H  0.72676334  0.19240851  0.19563988     0.36700
C1037       C  0.22881002  0.19485936  0.08811422    -0.27600
C1038       C  0.19680677  0.20387038  0.08093240     0.02000
C1039       C  0.19569286  0.24230329  0.08764776     0.30100
C1040       C  0.22600417  0.27083085  0.10167204    -0.19400
C1041       C  0.25847215  0.26219234  0.10899512    -0.28800
C1042       C  0.25985053  0.22385138  0.10182367     0.44200
C1043       C  0.16719400  0.17518182  0.06524167     0.05300
O1044       O  0.16447794  0.25167408  0.08081872    -0.57300
H1045       H  0.22404000  0.29992858  0.10672447     0.18300
O1046       O  0.29092322  0.21383074  0.10817768    -0.64000
H1047       H  0.23036911  0.16574790  0.08272793     0.16700
C1048       C  0.17433085  0.19318563  0.04643018     0.29000
C1049       C  0.14703602  0.16597016  0.03147081    -0.24900
C1050       C  0.11214212  0.12015824  0.03480768    -0.24200
C1051       C  0.10514915  0.10201835  0.05378428     0.40400
C1052       C  0.13276948  0.12954835  0.06882234    -0.26600
O1053       O  0.20813223  0.23748724  0.04250289    -0.58500
H1054       H  0.15333572  0.18116364  0.01715201     0.16100
O1055       O  0.07167493  0.05767263  0.05784758    -0.60000
H1056       H  0.12729637  0.11534500  0.08331027     0.14500
H1057       H  0.31488581  0.22723677  0.09827472     0.46400
H1058       H  0.23492701  0.23528274  0.04038935     0.41800
H1059       H  0.08470093  0.03826571  0.05532757     0.45200
H1060       H  0.18050219  0.27697848  0.07124371     0.36700
C1061       C  0.54394531  0.34312496  0.16435208    -0.27600
C1062       C  0.50309959  0.30926588  0.17232259     0.02000
C1063       C  0.50221353  0.28255282  0.18808400     0.30100
C1064       C  0.54217435  0.29082405  0.19608147    -0.19400
C1065       C  0.58314745  0.32681566  0.18894904    -0.28800
C1066       C  0.58396722  0.35217425  0.17262738     0.44200
C1067       C  0.46215675  0.30686043  0.16585802     0.05300
O1068       O  0.46247356  0.24929266  0.19605025    -0.57300
H1069       H  0.54117731  0.27041382  0.20839686     0.18300
O1070       O  0.62347070  0.38767397  0.16541918    -0.64000
H1071       H  0.54470301  0.36425239  0.15236743     0.16700
C1072       C  0.44539371  0.32990433  0.17633698     0.29000
C1073       C  0.40838058  0.33057089  0.16958136    -0.24900
C1074       C  0.38765199  0.30887976  0.15217017    -0.24200
C1075       C  0.40428084  0.28505222  0.14184164     0.40400
C1076       C  0.44138268  0.28420872  0.14876213    -0.26600
O1077       O  0.46542924  0.35246322  0.19310016    -0.58500
H1078       H  0.39638815  0.34886593  0.17796695     0.16100
O1079       O  0.38527915  0.26325236  0.12485889    -0.60000
H1080       H  0.45445622  0.26656937  0.14061567     0.14500
H1081       H  0.63010055  0.41501816  0.17316982     0.46400
H1082       H  0.49051481  0.38311672  0.18895977     0.41800
H1083       H  0.40327654  0.28580311  0.11456534     0.45200
H1084       H  0.45741943  0.26438120  0.20715543     0.36700
C1085       C  0.34609439  0.53248637  0.19430302    -0.27600
C1086       C  0.30859351  0.50412752  0.18289182     0.02000
C1087       C  0.27472357  0.51458704  0.18119418     0.30100
C1088       C  0.27950705  0.55373201  0.19024758    -0.19400
C1089       C  0.31679046  0.58158624  0.20164905    -0.28800
C1090       C  0.35010071  0.57071465  0.20380848     0.44200
C1091       C  0.30479590  0.46282392  0.17365127     0.05300
O1092       O  0.23566657  0.48506669  0.17188306    -0.57300
H1093       H  0.25336998  0.56161619  0.18886180     0.18300
O1094       O  0.38617078  0.59676758  0.21542835    -0.64000
H1095       H  0.37235115  0.52485799  0.19591798     0.16700
C1096       C  0.29458546  0.45315795  0.15389141     0.29000
C1097       C  0.29369054  0.41506048  0.14557052    -0.24900
C1098       C  0.30439230  0.38721176  0.15655280    -0.24200
C1099       C  0.31362067  0.39633996  0.17636705     0.40400
C1100       C  0.31362483  0.43366431  0.18472329    -0.26600
O1101       O  0.28743542  0.48178441  0.14237857    -0.58500
H1102       H  0.28698562  0.40879604  0.13028781     0.16100
O1103       O  0.32336517  0.36934805  0.18769687    -0.60000
H1104       H  0.32109163  0.44016609  0.19994971     0.14500
H1105       H  0.41129327  0.61602020  0.20653914     0.46400
H1106       H  0.31721730  0.50510815  0.13725243     0.41800
H1107       H  0.29416065  0.34399136  0.19251109     0.45200
H1108       H  0.23363068  0.50315966  0.16104032     0.36700
loop_ 
_geom_bond_atom_site_label_1 
_geom_bond_atom_site_label_2 
_geom_bond_distance 
_geom_bond_site_symmetry_2 
_ccdc_geom_bond_type 
C1            N2   1.364       .  A
C1            N6   1.362       .  A
C1         C1041   1.490       .  S
N2            C3   1.358       .  A
C3            N4   1.351       .  A
C3         C1098   1.475       .  S
N4            C5   1.352       .  A
C5            N6   1.358       .  A
C5         C1074   1.483       .  S
C7            H8   1.111       .  S
C7           C13   1.529       .  S
C7           C12   1.536       .  S
C7           C11   1.526       .  S
C9           H10   1.110       .  S
C9           C15   1.529       .  S
C9           C14   1.534       .  S
C9           C16   1.532       .  S
C11          C14   1.374       .  D
C11         C930   1.473       .  S
C12          C15   1.376       .  D
C12        C1002   1.484       .  S
C13          C16   1.374       .  D
C13         C969   1.480       .  S
C14         C945   1.483       .  S
C15        C1017   1.478       .  S
C16        C1065   1.478       .  S
C17          H18   1.111       .  S
C17          C23   1.535       .  S
C17          C22   1.536       .  S
C17          C21   1.533       .  S
C19          H20   1.112       .  S
C19          C25   1.526       .  S
C19          C24   1.528       .  S
C19          C26   1.531       .  S
C21          C24   1.374       .  D
C21         C906   1.479       .  S
C22          C25   1.373       .  D
C22         C825   1.480       .  S
C23          C26   1.375       .  D
C23         C882   1.479       .  S
C24        C1089   1.472       .  S
C25         C801   1.475       .  S
C26         C849   1.482       .  S
C27          N28   1.360       .  A
C27          N32   1.361   1_455  A
C27         C786   1.481       .  S
N28          C29   1.357       .  A
C29          N30   1.353       .  A
C29         C810   1.469       .  S
N30          C31   1.355   1_455  A
C31          N32   1.359       .  A
C31         C954   1.484       .  S
C33          N34   1.360       .  A
C33          N38   1.367   1_545  A
C33         C753   1.487       .  S
N34          C35   1.355       .  A
C35          N36   1.352   1_545  A
C35        C1026   1.485       .  S
N36          C37   1.353       .  A
C37          N38   1.363       .  A
C37         C858   1.475       .  S
C39          N40   1.363       .  A
C39          N44   1.360   1_455  A
C39         C738   1.484       .  S
N40          C41   1.360       .  A
C41          N42   1.354       .  A
C41         C834   1.482       .  S
N42          C43   1.353   1_455  A
C43          N44   1.356       .  A
C43         C921   1.469       .  S
C45          N46   1.366       .  A
C45          N50   1.364   1_545  A
C45         C705   1.492       .  S
N46          C47   1.360       .  A
C47          N48   1.351       .  A
C47         C993   1.475       .  S
N48          C49   1.352   1_545  A
C49          N50   1.358       .  A
C49         C873   1.487       .  S
C51          N52   1.363       .  A
C51          N56   1.361       .  A
C51         C681   1.490       .  S
N52          C53   1.360       .  A
C53          N54   1.352       .  A
C53         C897   1.488       .  S
N54          C55   1.352       .  A
C55          N56   1.356       .  A
C55         C978   1.473       .  S
Zr57         O58   2.440   1_545  S
Zr57         O59   2.441       .  S
Zr57         O60   2.441   1_655  S
Zr57         O63   2.422   1_545  S
Zr57         O65   2.377   1_655  S
Zr57         O66   2.384       .  S
Zr57         O67   2.405   1_645  S
Zr57         O68   2.399   1_545  S
O58         H114   0.990   1_655  S
O58         H122   0.990   1_655  S
O59          C79   1.285       .  A
O60          C81   1.285       .  A
O61         Zr71   2.453       .  S
O61          C80   1.289       .  A
O62         Zr70   2.442       .  S
O62          C81   1.287       .  A
O63          C80   1.283       .  A
O64         Zr72   2.428   1_655  S
O64          C79   1.283       .  A
O65         Zr70   2.396       .  S
O65         Zr72   2.379       .  S
O66         Zr71   2.397   1_545  S
O66         Zr72   2.378   1_655  S
O66         H101   0.968       .  S
O67         Zr70   2.398   1_565  S
O67         Zr87   2.391   1_455  S
O67         H104   0.965       .  S
O68         Zr71   2.390       .  S
O68         Zr87   2.385       .  S
Zr69         O94   2.441       .  S
Zr69         O88   2.442   1_545  S
Zr69         O96   2.420       .  S
Zr69         O84   2.429   1_655  S
Zr69         O75   2.401       .  S
Zr69         O76   2.408   1_655  S
Zr69         O77   2.376   1_645  S
Zr69         O78   2.380   1_545  S
Zr70         O89   2.436       .  S
Zr70         O82   2.434       .  S
Zr70         O83   2.438       .  S
Zr70         O76   2.400       .  S
Zr70         O77   2.395   1_545  S
Zr71         O73   2.437       .  S
Zr71         O95   2.439       .  S
Zr71         O97   2.456       .  S
Zr71         O75   2.393   1_565  S
Zr71         O78   2.395       .  S
Zr72         O98   2.436   1_455  S
Zr72         O99   2.436       .  S
Zr72         O74   2.438       .  S
Zr72         O75   2.398   1_455  S
Zr72         O76   2.400       .  S
O73         H110   0.990       .  S
O74         H105   0.990       .  S
O74         H119   0.990       .  S
O76         H102   0.966       .  S
O77         Zr87   2.377   1_455  S
O78         Zr87   2.378       .  S
O78         H103   0.965       .  S
C79         C633   1.496       .  S
C80         C618   1.496       .  S
C81         C657   1.491       .  S
O82         H118   0.990       .  S
O83          C85   1.286       .  A
O84          C85   1.283       .  A
C85         C690   1.492       .  S
O86         Zr87   2.438       .  S
O86         H115   0.990       .  S
Zr87         O90   2.437   1_655  S
Zr87         O91   2.438       .  S
Zr87         O92   2.417       .  S
O88          C93   1.285       .  A
O89         H106   0.990       .  S
O89         H121   0.990       .  S
O90         H107   0.990       .  S
O91         H111   0.990       .  S
O91         H120   0.990       .  S
O92          C93   1.282       .  A
C93         C729   1.492       .  S
O94         H113   0.990   1_655  S
O94         H117   0.990   1_655  S
O95         H109   0.990       .  S
O95         H116   0.990       .  S
O96         C100   1.283   1_545  A
O97         C100   1.289       .  A
O98         H108   0.990       .  S
O99         H112   0.990       .  S
C100        C714   1.498       .  S
Zr123       O124   2.442   1_655  S
Zr123       O125   2.441   1_545  S
Zr123       O126   2.439   1_645  S
Zr123       O129   2.433       .  S
Zr123       O131   2.380   1_545  S
Zr123       O132   2.386   1_545  S
Zr123       O133   2.409   1_655  S
Zr123       O134   2.399   1_655  S
O124        H180   0.990       .  S
O124        H188   0.990       .  S
O125        C145   1.285       .  A
O126        C147   1.284       .  A
O127       Zr137   2.424       .  S
O127        C146   1.284       .  A
O128       Zr136   2.435       .  S
O128        C147   1.286       .  A
O129        C146   1.285       .  A
O130       Zr138   2.420       .  S
O130        C145   1.281       .  A
O131       Zr136   2.394   1_655  S
O131       Zr138   2.373       .  S
O132       Zr137   2.394   1_565  S
O132       Zr138   2.376       .  S
O132        H167   0.965       .  S
O133       Zr136   2.401   1_545  S
O133       Zr153   2.391       .  S
O133        H170   0.966       .  S
O134       Zr137   2.390   1_455  S
O134       Zr153   2.382       .  S
Zr135       O160   2.440       .  S
Zr135       O154   2.447   1_665  S
Zr135       O162   2.438   1_565  S
Zr135       O150   2.438   1_655  S
Zr135       O141   2.402   1_554  S
Zr135       O142   2.412   1_554  S
Zr135       O143   2.382   1_664  S
Zr135       O144   2.380   1_664  S
Zr136       O155   2.435       .  S
Zr136       O148   2.435       .  S
Zr136       O149   2.435       .  S
Zr136       O142   2.401   1_455  S
Zr136       O143   2.395   1_565  S
Zr137       O139   2.435       .  S
Zr137       O161   2.436       .  S
Zr137       O163   2.433       .  S
Zr137       O141   2.386   1_545  S
Zr137       O144   2.393   1_655  S
Zr138       O164   2.436       .  S
Zr138       O165   2.435       .  S
Zr138       O140   2.437       .  S
Zr138       O141   2.396       .  S
Zr138       O142   2.394       .  S
O139        H176   0.990       .  S
O140        H171   0.990       .  S
O140        H185   0.990       .  S
O142        H168   0.965       .  S
O143       Zr153   2.379       .  S
O144       Zr153   2.382       .  S
O144        H169   0.966       .  S
C145        C546   1.488       .  S
C146        C594   1.480       .  S
C147        C561   1.491       .  S
O148        H184   0.990   1_455  S
O149        C151   1.286   1_556  A
O150        C151   1.285       .  A
C151        C777   1.488       .  S
O152       Zr153   2.438       .  S
O152        H181   0.990       .  S
Zr153       O156   2.437       .  S
Zr153       O157   2.440       .  S
Zr153       O158   2.405   1_556  S
O154        C159   1.286       .  A
O155        H172   0.990       .  S
O155        H187   0.990   1_565  S
O156        H173   0.990       .  S
O157        H177   0.990       .  S
O157        H186   0.990       .  S
O158        C159   1.280       .  A
C159       C1050   1.488       .  S
O160        H179   0.990       .  S
O160        H183   0.990       .  S
O161        H175   0.990       .  S
O161        H182   0.990       .  S
O162        C166   1.285       .  A
O163        C166   1.285   1_556  A
O164        H174   0.990       .  S
O165        H178   0.990       .  S
C166        C762   1.489       .  S
C189        N190   1.365       .  A
C189        N194   1.355   1_655  A
C189        C642   1.487       .  S
N190        C191   1.364       .  A
C191        N192   1.358       .  A
C191        C498   1.478       .  S
N192        C193   1.355   1_655  A
C193        N194   1.353       .  A
C193        C522   1.479       .  S
C195        N196   1.360   1_655  A
C195        N200   1.362       .  A
C195        C585   1.486       .  S
N196        C197   1.357       .  A
C197        N198   1.356   1_455  A
C197        C474   1.479       .  S
N198        C199   1.357       .  A
C199        N200   1.358       .  A
C199        C441   1.490       .  S
C201        H202   1.111       .  S
C201        C207   1.537       .  S
C201        C206   1.537       .  S
C201        C205   1.539       .  S
C203        H204   1.111       .  S
C203        C209   1.534       .  S
C203        C208   1.532       .  S
C203        C210   1.530       .  S
C205        C208   1.378       .  D
C205        C402   1.487       .  S
C206        C209   1.376       .  D
C206        C489   1.481       .  S
C207        C210   1.374       .  D
C207        C345   1.485       .  S
C208        C426   1.484       .  S
C209        C450   1.489       .  S
C210        C378   1.477       .  S
C211        H212   1.111       .  S
C211        C217   1.531       .  S
C211        C216   1.532       .  S
C211        C215   1.534       .  S
C213        H214   1.110       .  S
C213        C219   1.529       .  S
C213        C218   1.544       .  S
C213        C220   1.539       .  S
C215        C218   1.381       .  D
C215        C297   1.484       .  S
C216        C219   1.369       .  D
C216        C258   1.473       .  S
C217        C220   1.378       .  D
C217        C465   1.490       .  S
C218        C330   1.495       .  S
C219        C273   1.482       .  S
C220        C513   1.483       .  S
C221        N222   1.362       .  A
C221        N226   1.366   1_545  A
C221        C666   1.488       .  S
N222        C223   1.358       .  A
C223        N224   1.353       .  A
C223        C393   1.483       .  S
N224        C225   1.355   1_545  A
C225        N226   1.363       .  A
C225        C321   1.493       .  S
C227        N228   1.366       .  A
C227        N232   1.367       .  A
C227        C609   1.498       .  S
N228        C229   1.359       .  A
C229        N230   1.353       .  A
C229        C354   1.484       .  S
N230        C231   1.355       .  A
C231        N232   1.363       .  A
C231        C282   1.495       .  S
C233        N234   1.363       .  A
C233        N238   1.364       .  A
C233        C537   1.492       .  S
N234        C235   1.358       .  A
C235        N236   1.353       .  A
C235        C369   1.489       .  S
N236        C237   1.353       .  A
C237        N238   1.360       .  A
C237        C249   1.475       .  S
C239        N240   1.364       .  A
C239        N244   1.363   1_545  A
C239        C570   1.493   1_545  S
N240        C241   1.360       .  A
C241        N242   1.354       .  A
C241        C417   1.478       .  S
N242        C243   1.352   1_545  A
C243        N244   1.357       .  A
C243        C306   1.472       .  S
C245        C246   1.403       .  A
C245        C250   1.405       .  A
C245        H255   1.083       .  S
C246        C251   1.476       .  S
C246        C247   1.405       .  A
C247        C248   1.397       .  A
C247        O252   1.373       .  S
C248        C249   1.404       .  A
C248        H253   1.084       .  S
C249        C250   1.409       .  A
C250        O254   1.371       .  S
C251        C256   1.407       .  A
C251        C260   1.403       .  A
O252        H268   0.992       .  S
O254        H265   0.992       .  S
C256        C257   1.398       .  A
C256        O261   1.372       .  S
C257        C258   1.399       .  A
C257        H262   1.084       .  S
C258        C259   1.405       .  A
C259        C260   1.402       .  A
C259        O263   1.371       .  S
C260        H264   1.083       .  S
O261        H266   0.992       .  S
O263        H267   0.992       .  S
C269        C270   1.407       .  A
C269        C274   1.401       .  A
C269        H279   1.083       .  S
C270        C275   1.487       .  S
C270        C271   1.409       .  A
C271        C272   1.400       .  A
C271        O276   1.371       .  S
C272        C273   1.402       .  A
C272        H277   1.083       .  S
C273        C274   1.405       .  A
C274        O278   1.372       .  S
C275        C280   1.405       .  A
C275        C284   1.406       .  A
O276        H292   0.992       .  S
O278        H289   0.992       .  S
C280        C281   1.398       .  A
C280        O285   1.373       .  S
C281        C282   1.410       .  A
C281        H286   1.083       .  S
C282        C283   1.414       .  A
C283        C284   1.406       .  A
C283        O287   1.371       .  S
C284        H288   1.083       .  S
O285        H290   0.992       .  S
O287        H291   0.992       .  S
C293        C294   1.401       .  A
C293        C298   1.396       .  A
C293        H303   1.083       .  S
C294        C299   1.482       .  S
C294        C295   1.411       .  A
C295        C296   1.399       .  A
C295        O300   1.371       .  S
C296        C297   1.403       .  A
C296        H301   1.083       .  S
C297        C298   1.409       .  A
C298        O302   1.371       .  S
C299        C304   1.410       .  A
C299        C308   1.403       .  A
O300        H316   0.992       .  S
O302        H313   0.991       .  S
C304        C305   1.401       .  A
C304        O309   1.372       .  S
C305        C306   1.402       .  A
C305        H310   1.084       .  S
C306        C307   1.408       .  A
C307        C308   1.397       .  A
C307        O311   1.372       .  S
C308        H312   1.084       .  S
O309        H314   0.992       .  S
O311        H315   0.992       .  S
C317        C318   1.405       .  A
C317        C322   1.408       .  A
C317        H327   1.083       .  S
C318        C323   1.486       .  S
C318        C319   1.406       .  A
C319        C320   1.394       .  A
C319        O324   1.373       .  S
C320        C321   1.409       .  A
C320        H325   1.083       .  S
C321        C322   1.414       .  A
C322        O326   1.371       .  S
C323        C328   1.408       .  A
C323        C332   1.403       .  A
O324        H340   0.992       .  S
O326        H337   0.992       .  S
C328        C329   1.403       .  A
C328        O333   1.372       .  S
C329        C330   1.407       .  A
C329        H334   1.083       .  S
C330        C331   1.411       .  A
C331        C332   1.400       .  A
C331        O335   1.371       .  S
C332        H336   1.084       .  S
O333        H338   0.992       .  S
O335        H339   0.991       .  S
C341        C342   1.404       .  A
C341        C346   1.399       .  A
C341        H351   1.084       .  S
C342        C347   1.489       .  S
C342        C343   1.411       .  A
C343        C344   1.407       .  A
C343        O348   1.372       .  S
C344        C345   1.403       .  A
C344        H349   1.084       .  S
C345        C346   1.406       .  A
C346        O350   1.373       .  S
C347        C352   1.411       .  A
C347        C356   1.403       .  A
O348        H364   0.992       .  S
O350        H361   0.992       .  S
C352        C353   1.406       .  A
C352        O357   1.371       .  S
C353        C354   1.406       .  A
C353        H358   1.083       .  S
C354        C355   1.411       .  A
C355        C356   1.399       .  A
C355        O359   1.373       .  S
C356        H360   1.084       .  S
O357        H362   0.992       .  S
O359        H363   0.992       .  S
C365        C366   1.398       .  A
C365        C370   1.394       .  A
C365        H375   1.084       .  S
C366        C371   1.476       .  S
C366        C367   1.405       .  A
C367        C368   1.402       .  A
C367        O372   1.372       .  S
C368        C369   1.410       .  A
C368        H373   1.083       .  S
C369        C370   1.417       .  A
C370        O374   1.372       .  S
C371        C376   1.408       .  A
C371        C380   1.402       .  A
O372        H388   0.992       .  S
O374        H385   0.992       .  S
C376        C377   1.397       .  A
C376        O381   1.372       .  S
C377        C378   1.400       .  A
C377        H382   1.084       .  S
C378        C379   1.408       .  A
C379        C380   1.402       .  A
C379        O383   1.374       .  S
C380        H384   1.084       .  S
O381        H386   0.992       .  S
O383        H387   0.992       .  S
C389        C390   1.402       .  A
C389        C394   1.396       .  A
C389        H399   1.084       .  S
C390        C395   1.486       .  S
C390        C391   1.411       .  A
C391        C392   1.403       .  A
C391        O396   1.371       .  S
C392        C393   1.405       .  A
C392        H397   1.083       .  S
C393        C394   1.412       .  A
C394        O398   1.372       .  S
C395        C400   1.410       .  A
C395        C404   1.404       .  A
O396        H412   0.992       .  S
O398        H409   0.992       .  S
C400        C401   1.397       .  A
C400        O405   1.372       .  S
C401        C402   1.403       .  A
C401        H406   1.083       .  S
C402        C403   1.410       .  A
C403        C404   1.401       .  A
C403        O407   1.371       .  S
C404        H408   1.083       .  S
O405        H410   0.992       .  S
O407        H411   0.992       .  S
C413        C414   1.399       .  A
C413        C418   1.395       .  A
C413        H423   1.084       .  S
C414        C419   1.477       .  S
C414        C415   1.408       .  A
C415        C416   1.405       .  A
C415        O420   1.371       .  S
C416        C417   1.405       .  A
C416        H421   1.083       .  S
C417        C418   1.411       .  A
C418        O422   1.372       .  S
C419        C424   1.408       .  A
C419        C428   1.402       .  A
O420        H436   0.992       .  S
O422        H433   0.992       .  S
C424        C425   1.401       .  A
C424        O429   1.372       .  S
C425        C426   1.402       .  A
C425        H430   1.084       .  S
C426        C427   1.408       .  A
C427        C428   1.402       .  A
C427        O431   1.373       .  S
C428        H432   1.084       .  S
O429        H434   0.992       .  S
O431        H435   0.992       .  S
C437        C438   1.403       .  A
C437        C442   1.405       .  A
C437        H447   1.083       .  S
C438        C443   1.482       .  S
C438        C439   1.406       .  A
C439        C440   1.395       .  A
C439        O444   1.372       .  S
C440        C441   1.407       .  A
C440        H445   1.083       .  S
C441        C442   1.417       .  A
C442        O446   1.371       .  S
C443        C448   1.408       .  A
C443        C452   1.402       .  A
O444        H460   0.992       .  S
O446        H457   0.992       .  S
C448        C449   1.404       .  A
C448        O453   1.371       .  S
C449        C450   1.406       .  A
C449        H454   1.083       .  S
C450        C451   1.409       .  A
C451        C452   1.397       .  A
C451        O455   1.371       .  S
C452        H456   1.084       .  S
O453        H458   0.992       .  S
O455        H459   0.992       .  S
C461        C462   1.403       .  A
C461        C466   1.394       .  A
C461        H471   1.083       .  S
C462        C467   1.486       .  S
C462        C463   1.410       .  A
C463        C464   1.405       .  A
C463        O468   1.371       .  S
C464        C465   1.406       .  A
C464        H469   1.084       .  S
C465        C466   1.410       .  A
C466        O470   1.371       .  S
C467        C472   1.409       .  A
C467        C476   1.405       .  A
O468        H484   0.992       .  S
O470        H481   0.991       .  S
C472        C473   1.398       .  A
C472        O477   1.373       .  S
C473        C474   1.402       .  A
C473        H478   1.084       .  S
C474        C475   1.411       .  A
C475        C476   1.403       .  A
C475        O479   1.372       .  S
C476        H480   1.083       .  S
O477        H482   0.992       .  S
O479        H483   0.992       .  S
C485        C486   1.404       .  A
C485        C490   1.402       .  A
C485        H495   1.083       .  S
C486        C491   1.484       .  S
C486        C487   1.410       .  A
C487        C488   1.400       .  A
C487        O492   1.373       .  S
C488        C489   1.401       .  A
C488        H493   1.084       .  S
C489        C490   1.407       .  A
C490        O494   1.371       .  S
C491        C496   1.409       .  A
C491        C500   1.405       .  A
O492        H508   0.992       .  S
O494        H505   0.992       .  S
C496        C497   1.397       .  A
C496        O501   1.372       .  S
C497        C498   1.404       .  A
C497        H502   1.084       .  S
C498        C499   1.410       .  A
C499        C500   1.405       .  A
C499        O503   1.372       .  S
C500        H504   1.083       .  S
O501        H506   0.992       .  S
O503        H507   0.992       .  S
C509        C510   1.400       .  A
C509        C514   1.396       .  A
C509        H519   1.084       .  S
C510        C515   1.471       .  S
C510        C511   1.406       .  A
C511        C512   1.397       .  A
C511        O516   1.372       .  S
C512        C513   1.402       .  A
C512        H517   1.083       .  S
C513        C514   1.412       .  A
C514        O518   1.371       .  S
C515        C520   1.403       .  A
C515        C524   1.402       .  A
O516        H532   0.992       .  S
O518        H529   0.991       .  S
C520        C521   1.396       .  A
C520        O525   1.371       .  S
C521        C522   1.407       .  A
C521        H526   1.083       .  S
C522        C523   1.412       .  A
C523        C524   1.398       .  A
C523        O527   1.372       .  S
C524        H528   1.084       .  S
O525        H530   0.991       .  S
O527        H531   0.992       .  S
C533        C534   1.402       .  A
C533        C538   1.403       .  A
C533        H543   1.084       .  S
C534        C539   1.481       .  S
C534        C535   1.405       .  A
C535        C536   1.398       .  A
C535        O540   1.372       .  S
C536        C537   1.409       .  A
C536        H541   1.083       .  S
C537        C538   1.416       .  A
C538        O542   1.371       .  S
C539        C544   1.408       .  A
C539        C548   1.399       .  A
O540        H556   0.992       .  S
O542        H553   0.992       .  S
C544        C545   1.405       .  A
C544        O549   1.371       .  S
C545        C546   1.408       .  A
C545        H550   1.083       .  S
C546        C547   1.414       .  A
C547        C548   1.397       .  A
C547        O551   1.372       .  S
C548        H552   1.084       .  S
O549        H554   0.992       .  S
O551        H555   0.992       .  S
C557        C558   1.399       .  A
C557        C562   1.400       .  A
C557        H567   1.084       .  S
C558        C563   1.478       .  S
C558        C559   1.405       .  A
C559        C560   1.402       .  A
C559        O564   1.371       .  S
C560        C561   1.409       .  A
C560        H565   1.083       .  S
C561        C562   1.416       .  A
C562        O566   1.371       .  S
C563        C568   1.404       .  A
C563        C572   1.400   1_565  A
O564        H580   0.991       .  S
O566        H577   0.992       .  S
C568        C569   1.401       .  A
C568        O573   1.372       .  S
C569        C570   1.411       .  A
C569        H574   1.083       .  S
C570        C571   1.416   1_565  A
C571        C572   1.401       .  A
C571        O575   1.371       .  S
C572        H576   1.084       .  S
O573        H578   0.992       .  S
O575        H579   0.992       .  S
C581        C582   1.403   1_455  A
C581        C586   1.400       .  A
C581        H591   1.083       .  S
C582        C587   1.483       .  S
C582        C583   1.407       .  A
C583        C584   1.398       .  A
C583        O588   1.372       .  S
C584        C585   1.407       .  A
C584        H589   1.083       .  S
C585        C586   1.414   1_655  A
C586        O590   1.372       .  S
C587        C592   1.408   1_655  A
C587        C596   1.404       .  A
O588        H604   0.992       .  S
O590        H601   0.992       .  S
C592        C593   1.399       .  A
C592        O597   1.372       .  S
C593        C594   1.405   1_455  A
C593        H598   1.084       .  S
C594        C595   1.411       .  A
C595        C596   1.400       .  A
C595        O599   1.372       .  S
C596        H600   1.083       .  S
O597        H602   0.992       .  S
O599        H603   0.992       .  S
C605        C606   1.402       .  A
C605        C610   1.406       .  A
C605        H615   1.084       .  S
C606        C611   1.486       .  S
C606        C607   1.407       .  A
C607        C608   1.400       .  A
C607        O612   1.372       .  S
C608        C609   1.409       .  A
C608        H613   1.083       .  S
C609        C610   1.417       .  A
C610        O614   1.371       .  S
C611        C616   1.407       .  A
C611        C620   1.399       .  A
O612        H628   0.992       .  S
O614        H625   0.992       .  S
C616        C617   1.407       .  A
C616        O621   1.371       .  S
C617        C618   1.410       .  A
C617        H622   1.083       .  S
C618        C619   1.418       .  A
C619        C620   1.399       .  A
C619        O623   1.372       .  S
C620        H624   1.084       .  S
O621        H626   0.992       .  S
O623        H627   0.992       .  S
C629        C630   1.401       .  A
C629        C634   1.402       .  A
C629        H639   1.084       .  S
C630        C635   1.482       .  S
C630        C631   1.405       .  A
C631        C632   1.402       .  A
C631        O636   1.372       .  S
C632        C633   1.411       .  A
C632        H637   1.083       .  S
C633        C634   1.416       .  A
C634        O638   1.371       .  S
C635        C640   1.408       .  A
C635        C644   1.400   1_655  A
O636        H652   0.992       .  S
O638        H649   0.992       .  S
C640        C641   1.403       .  A
C640        O645   1.371       .  S
C641        C642   1.405       .  A
C641        H646   1.083       .  S
C642        C643   1.417   1_655  A
C643        C644   1.399       .  A
C643        O647   1.372       .  S
C644        H648   1.084       .  S
O645        H650   0.992       .  S
O647        H651   0.992       .  S
C653        C654   1.404       .  A
C653        C658   1.401       .  A
C653        H663   1.083       .  S
C654        C659   1.493       .  S
C654        C655   1.412       .  A
C655        C656   1.404       .  A
C655        O660   1.372       .  S
C656        C657   1.408       .  A
C656        H661   1.084       .  S
C657        C658   1.413       .  A
C658        O662   1.371       .  S
C659        C664   1.412   1_545  A
C659        C668   1.404       .  A
O660        H676   0.992       .  S
O662        H673   0.992       .  S
C664        C665   1.404       .  A
C664        O669   1.372       .  S
C665        C666   1.404   1_565  A
C665        H670   1.084       .  S
C666        C667   1.413       .  A
C667        C668   1.403       .  A
C667        O671   1.372       .  S
C668        H672   1.083       .  S
O669        H674   0.992       .  S
O671        H675   0.992       .  S
C677        C678   1.400       .  A
C677        C682   1.399       .  A
C677        H687   1.084       .  S
C678        C683   1.475       .  S
C678        C679   1.403       .  A
C679        C680   1.400       .  A
C679        O684   1.372       .  S
C680        C681   1.411       .  A
C680        H685   1.083       .  S
C681        C682   1.415       .  A
C682        O686   1.371       .  S
C683        C688   1.405       .  A
C683        C692   1.398       .  A
O684        H700   0.992       .  S
O686        H697   0.992       .  S
C688        C689   1.401       .  A
C688        O693   1.372       .  S
C689        C690   1.409       .  A
C689        H694   1.083       .  S
C690        C691   1.418       .  A
C691        C692   1.398       .  A
C691        O695   1.371       .  S
C692        H696   1.084       .  S
O693        H698   0.992       .  S
O695        H699   0.992       .  S
C701        C702   1.404   1_545  A
C701        C706   1.404       .  A
C701        H711   1.083       .  S
C702        C707   1.488       .  S
C702        C703   1.407       .  A
C703        C704   1.400       .  A
C703        O708   1.372       .  S
C704        C705   1.409   1_565  A
C704        H709   1.083       .  S
C705        C706   1.414       .  A
C706        O710   1.371       .  S
C707        C712   1.406   1_565  A
C707        C716   1.404       .  A
O708        H724   0.992       .  S
O710        H721   0.992       .  S
C712        C713   1.402       .  A
C712        O717   1.372       .  S
C713        C714   1.412   1_545  A
C713        H718   1.083       .  S
C714        C715   1.415       .  A
C715        C716   1.404       .  A
C715        O719   1.371       .  S
C716        H720   1.084       .  S
O717        H722   0.992       .  S
O719        H723   0.992       .  S
C725        C726   1.404       .  A
C725        C730   1.404       .  A
C725        H735   1.083       .  S
C726        C731   1.484       .  S
C726        C727   1.406   1_655  A
C727        C728   1.396       .  A
C727        O732   1.372       .  S
C728        C729   1.409   1_455  A
C728        H733   1.083       .  S
C729        C730   1.415       .  A
C730        O734   1.371       .  S
C731        C736   1.407       .  A
C731        C740   1.403   1_655  A
O732        H748   0.992   1_455  S
O734        H745   0.992       .  S
C736        C737   1.401       .  A
C736        O741   1.372       .  S
C737        C738   1.408   1_655  A
C737        H742   1.083       .  S
C738        C739   1.411       .  A
C739        C740   1.398       .  A
C739        O743   1.371       .  S
C740        H744   1.084       .  S
O741        H746   0.992       .  S
O743        H747   0.992       .  S
C749        C750   1.402       .  A
C749        C754   1.400       .  A
C749        H759   1.084       .  S
C750        C755   1.487       .  S
C750        C751   1.410   1_545  A
C751        C752   1.405       .  A
C751        O756   1.372       .  S
C752        C753   1.405   1_565  A
C752        H757   1.083       .  S
C753        C754   1.415       .  A
C754        O758   1.371       .  S
C755        C760   1.409       .  A
C755        C764   1.403       .  A
O756        H772   0.992       .  S
O758        H769   0.992       .  S
C760        C761   1.402       .  A
C760        O765   1.371       .  S
C761        C762   1.407       .  A
C761        H766   1.083       .  S
C762        C763   1.413       .  A
C763        C764   1.403       .  A
C763        O767   1.372       .  S
C764        H768   1.084       .  S
O765        H770   0.992       .  S
O767        H771   0.992       .  S
C773        C774   1.402       .  A
C773        C778   1.402       .  A
C773        H783   1.084       .  S
C774        C779   1.481       .  S
C774        C775   1.406       .  A
C775        C776   1.400       .  A
C775        O780   1.372       .  S
C776        C777   1.408       .  A
C776        H781   1.083   1_554  S
C777        C778   1.414       .  A
C778        O782   1.372       .  S
C779        C784   1.406       .  A
C779        C788   1.403   1_455  A
O780        H796   0.992       .  S
O782        H793   0.992   1_455  S
C784        C785   1.401       .  A
C784        O789   1.372       .  S
C785        C786   1.406       .  A
C785        H790   1.084       .  S
C786        C787   1.411   1_455  A
C787        C788   1.401       .  A
C787        O791   1.372       .  S
C788        H792   1.084       .  S
O789        H794   0.992       .  S
O791        H795   0.992       .  S
C797        C798   1.404       .  A
C797        C802   1.396       .  A
C797        H807   1.083       .  S
C798        C803   1.477       .  S
C798        C799   1.408       .  A
C799        C800   1.398       .  A
C799        O804   1.371       .  S
C800        C801   1.401       .  A
C800        H805   1.084       .  S
C801        C802   1.406       .  A
C802        O806   1.372       .  S
C803        C808   1.407       .  A
C803        C812   1.404       .  A
O804        H820   0.992       .  S
O806        H817   0.992       .  S
C808        C809   1.398       .  A
C808        O813   1.373       .  S
C809        C810   1.402       .  A
C809        H814   1.084       .  S
C810        C811   1.407       .  A
C811        C812   1.399       .  A
C811        O815   1.372       .  S
C812        H816   1.084       .  S
O813        H818   0.992       .  S
O815        H819   0.992       .  S
C821        C822   1.403       .  A
C821        C826   1.401       .  A
C821        H831   1.084       .  S
C822        C827   1.474       .  S
C822        C823   1.404       .  A
C823        C824   1.397       .  A
C823        O828   1.372       .  S
C824        C825   1.404       .  A
C824        H829   1.084       .  S
C825        C826   1.406       .  A
C826        O830   1.371       .  S
C827        C832   1.405       .  A
C827        C836   1.401       .  A
O828        H844   0.992       .  S
O830        H841   0.992       .  S
C832        C833   1.396       .  A
C832        O837   1.373       .  S
C833        C834   1.407       .  A
C833        H838   1.084       .  S
C834        C835   1.412       .  A
C835        C836   1.402       .  A
C835        O839   1.370       .  S
C836        H840   1.084       .  S
O837        H842   0.992       .  S
O839        H843   0.992       .  S
C845        C846   1.404       .  A
C845        C850   1.403       .  A
C845        H855   1.083       .  S
C846        C851   1.485       .  S
C846        C847   1.411       .  A
C847        C848   1.395       .  A
C847        O852   1.372       .  S
C848        C849   1.401       .  A
C848        H853   1.084       .  S
C849        C850   1.407       .  A
C850        O854   1.371       .  S
C851        C856   1.412       .  A
C851        C860   1.402       .  A
O852        H868   0.992       .  S
O854        H865   0.991       .  S
C856        C857   1.405       .  A
C856        O861   1.372       .  S
C857        C858   1.403       .  A
C857        H862   1.083       .  S
C858        C859   1.410       .  A
C859        C860   1.394       .  A
C859        O863   1.372       .  S
C860        H864   1.084       .  S
O861        H866   0.992       .  S
O863        H867   0.991       .  S
C869        C870   1.402       .  A
C869        C874   1.403       .  A
C869        H879   1.084       .  S
C870        C875   1.475       .  S
C870        C871   1.403       .  A
C871        C872   1.393       .  A
C871        O876   1.372       .  S
C872        C873   1.409       .  A
C872        H877   1.083       .  S
C873        C874   1.414       .  A
C874        O878   1.371       .  S
C875        C880   1.406       .  A
C875        C884   1.403       .  A
O876        H892   0.992       .  S
O878        H889   0.992       .  S
C880        C881   1.399       .  A
C880        O885   1.372       .  S
C881        C882   1.405       .  A
C881        H886   1.084       .  S
C882        C883   1.406       .  A
C883        C884   1.395       .  A
C883        O887   1.372       .  S
C884        H888   1.084       .  S
O885        H890   0.992       .  S
O887        H891   0.992       .  S
C893        C894   1.400       .  A
C893        C898   1.396       .  A
C893        H903   1.083       .  S
C894        C899   1.482       .  S
C894        C895   1.408       .  A
C895        C896   1.401       .  A
C895        O900   1.371       .  S
C896        C897   1.407       .  A
C896        H901   1.083       .  S
C897        C898   1.417       .  A
C898        O902   1.372       .  S
C899        C904   1.410       .  A
C899        C908   1.404       .  A
O900        H916   0.992       .  S
O902        H913   0.992       .  S
C904        C905   1.399       .  A
C904        O909   1.373       .  S
C905        C906   1.401       .  A
C905        H910   1.084       .  S
C906        C907   1.407       .  A
C907        C908   1.397       .  A
C907        O911   1.371       .  S
C908        H912   1.083       .  S
O909        H914   0.992       .  S
O911        H915   0.991       .  S
C917        C918   1.404       .  A
C917        C922   1.400       .  A
C917        H927   1.084       .  S
C918        C923   1.477       .  S
C918        C919   1.407       .  A
C919        C920   1.396       .  A
C919        O924   1.373       .  S
C920        C921   1.401       .  A
C920        H925   1.084       .  S
C921        C922   1.408       .  A
C922        O926   1.372       .  S
C923        C928   1.410       .  A
C923        C932   1.402       .  A
O924        H940   0.992       .  S
O926        H937   0.992       .  S
C928        C929   1.395       .  A
C928        O933   1.371       .  S
C929        C930   1.399       .  A
C929        H934   1.084       .  S
C930        C931   1.407       .  A
C931        C932   1.398       .  A
C931        O935   1.371       .  S
C932        H936   1.084       .  S
O933        H938   0.992       .  S
O935        H939   0.991       .  S
C941        C942   1.403       .  A
C941        C946   1.396       .  A
C941        H951   1.083       .  S
C942        C947   1.485       .  S
C942        C943   1.412       .  A
C943        C944   1.399       .  A
C943        O948   1.371       .  S
C944        C945   1.403       .  A
C944        H949   1.083       .  S
C945        C946   1.408       .  A
C946        O950   1.371       .  S
C947        C952   1.409       .  A
C947        C956   1.404       .  A
O948        H964   0.992       .  S
O950        H961   0.992       .  S
C952        C953   1.396       .  A
C952        O957   1.373       .  S
C953        C954   1.406       .  A
C953        H958   1.083       .  S
C954        C955   1.412       .  A
C955        C956   1.401       .  A
C955        O959   1.371       .  S
C956        H960   1.083       .  S
O957        H962   0.992       .  S
O959        H963   0.992       .  S
C965        C966   1.403       .  A
C965        C970   1.393       .  A
C965        H975   1.083       .  S
C966        C971   1.475       .  S
C966        C967   1.406       .  A
C967        C968   1.396       .  A
C967        O972   1.371       .  S
C968        C969   1.403       .  A
C968        H973   1.084       .  S
C969        C970   1.409       .  A
C970        O974   1.371       .  S
C971        C976   1.406       .  A
C971        C980   1.404       .  A
O972        H988   0.992       .  S
O974        H985   0.991       .  S
C976        C977   1.394       .  A
C976        O981   1.373       .  S
C977        C978   1.404       .  A
C977        H982   1.084       .  S
C978        C979   1.409       .  A
C979        C980   1.399       .  A
C979        O983   1.372       .  S
C980        H984   1.084       .  S
O981        H986   0.992       .  S
O983        H987   0.992       .  S
C989        C990   1.402       .  A
C989        C994   1.395       .  A
C989        H999   1.083       .  S
C990        C995   1.486       .  S
C990        C991   1.413       .  A
C991        C992   1.405       .  A
C991        O996   1.372       .  S
C992        C993   1.403       .  A
C992        H997   1.084       .  S
C993        C994   1.409       .  A
C994        O998   1.372       .  S
C995       C1000   1.412       .  A
C995       C1004   1.405       .  A
O996       H1012   0.992       .  S
O998       H1009   0.992       .  S
C1000      C1001   1.397       .  A
C1000      O1005   1.373       .  S
C1001      C1002   1.401       .  A
C1001      H1006   1.083       .  S
C1002      C1003   1.409       .  A
C1003      C1004   1.402       .  A
C1003      O1007   1.372       .  S
C1004      H1008   1.083       .  S
O1005      H1010   0.992       .  S
O1007      H1011   0.992       .  S
C1013      C1014   1.401       .  A
C1013      C1018   1.394       .  A
C1013      H1023   1.084       .  S
C1014      C1019   1.474       .  S
C1014      C1015   1.408       .  A
C1015      C1016   1.397       .  A
C1015      O1020   1.371       .  S
C1016      C1017   1.402       .  A
C1016      H1021   1.083       .  S
C1017      C1018   1.408       .  A
C1018      O1022   1.371       .  S
C1019      C1024   1.405       .  A
C1019      C1028   1.401       .  A
O1020      H1036   0.992       .  S
O1022      H1033   0.992       .  S
C1024      C1025   1.393       .  A
C1024      O1029   1.372       .  S
C1025      C1026   1.408       .  A
C1025      H1030   1.083       .  S
C1026      C1027   1.414       .  A
C1027      C1028   1.399       .  A
C1027      O1031   1.370       .  S
C1028      H1032   1.084       .  S
O1029      H1034   0.992       .  S
O1031      H1035   0.992       .  S
C1037      C1038   1.398       .  A
C1037      C1042   1.400       .  A
C1037      H1047   1.084       .  S
C1038      C1043   1.475       .  S
C1038      C1039   1.404       .  A
C1039      C1040   1.400       .  A
C1039      O1044   1.372       .  S
C1040      C1041   1.409       .  A
C1040      H1045   1.083       .  S
C1041      C1042   1.417       .  A
C1042      O1046   1.371       .  S
C1043      C1048   1.402       .  A
C1043      C1052   1.403       .  A
O1044      H1060   0.992       .  S
O1046      H1057   0.992       .  S
C1048      C1049   1.393       .  A
C1048      O1053   1.372       .  S
C1049      C1050   1.409       .  A
C1049      H1054   1.083       .  S
C1050      C1051   1.414       .  A
C1051      C1052   1.405       .  A
C1051      O1055   1.371       .  S
C1052      H1056   1.084       .  S
O1053      H1058   0.992       .  S
O1055      H1059   0.992       .  S
C1061      C1062   1.401       .  A
C1061      C1066   1.397       .  A
C1061      H1071   1.084       .  S
C1062      C1067   1.467       .  S
C1062      C1063   1.403       .  A
C1063      C1064   1.396       .  A
C1063      O1068   1.372       .  S
C1064      C1065   1.405       .  A
C1064      H1069   1.084       .  S
C1065      C1066   1.407       .  A
C1066      O1070   1.372       .  S
C1067      C1072   1.402       .  A
C1067      C1076   1.399       .  A
O1068      H1084   0.992       .  S
O1070      H1081   0.992       .  S
C1072      C1073   1.392       .  A
C1072      O1077   1.373       .  S
C1073      C1074   1.409       .  A
C1073      H1078   1.083       .  S
C1074      C1075   1.414       .  A
C1075      C1076   1.402       .  A
C1075      O1079   1.370       .  S
C1076      H1080   1.084       .  S
O1077      H1082   0.992       .  S
O1079      H1083   0.992       .  S
C1085      C1086   1.408       .  A
C1085      C1090   1.397       .  A
C1085      H1095   1.084       .  S
C1086      C1091   1.484       .  S
C1086      C1087   1.410       .  A
C1087      C1088   1.400       .  A
C1087      O1092   1.373       .  S
C1088      C1089   1.400       .  A
C1088      H1093   1.084       .  S
C1089      C1090   1.403       .  A
C1090      O1094   1.372       .  S
C1091      C1096   1.413       .  A
C1091      C1100   1.402       .  A
O1092      H1108   0.992       .  S
O1094      H1105   0.990       .  S
C1096      C1097   1.402       .  A
C1096      O1101   1.371       .  S
C1097      C1098   1.402       .  A
C1097      H1102   1.084       .  S
C1098      C1099   1.410       .  A
C1099      C1100   1.394       .  A
C1099      O1103   1.372       .  S
C1100      H1104   1.084       .  S
O1101      H1106   0.992       .  S
O1103      H1107   0.992       .  S
