geometry optimzed in LAMMPS
_audit_creation_date              2020-11-30 
_audit_creation_method            'lammps2cif' 
_symmetry_space_group_name_H-M    'P1' 
_symmetry_Int_Tables_number       1 
_symmetry_cell_setting            triclinic 
loop_ 
_symmetry_equiv_pos_as_xyz 
  x,y,z 
_cell_length_a                    24.41732013 
_cell_length_b                    25.002504434927058 
_cell_length_c                    39.70357748423969 
_cell_angle_alpha                 90.10174342667779 
_cell_angle_beta                  89.45743992206803 
_cell_angle_gamma                 90.62983440980041 
loop_ 
_atom_site_label 
_atom_site_type_symbol 
_atom_site_fract_x 
_atom_site_fract_y 
_atom_site_fract_z 
_atom_site_charge 
C1          C  0.50029336  0.45644692  0.77751103     0.89200
C2          C  0.45323482  0.45803105  0.75233554    -0.51100
C3          C  0.44992224  0.99446884  0.73267995     0.12100
C4          C  0.49501989  0.03650315  0.73983954     0.23000
C5          C  0.05268485  0.45953537  0.75336150    -0.51800
C6          C  0.04633854  0.00888302  0.73832777     0.12200
C7          C  0.49250345  0.50541967  0.80004372    -0.51300
C8          C  0.98353161  0.04405077  0.78067363     0.12800
H9          H  0.42427050  0.42526144  0.74870509     0.17300
H10         H  0.49252848  0.07320165  0.72419753     0.03000
H11         H  0.08677135  0.43209213  0.75141785     0.17600
H12         H  0.49010181  0.50345132  0.82737511     0.17400
O13         O  0.31021284  0.08756409  0.59134084    -0.70300
O14         O  0.19596887  0.08352827  0.66624546    -0.71200
O15         O  0.31210818  0.06946917  0.66187394    -0.59900
O16         O  0.19397613  0.10320054  0.59609439    -0.68300
O17         O  0.18058903  0.01657441  0.58635687    -0.67800
O18         O  0.30702987  0.48851778  0.65184593    -0.59100
O19         O  0.19074381  0.49642475  0.65540768    -0.71600
O20         O  0.29516235  0.00100017  0.58233562    -0.70400
Cu21       Cu  0.25359377  0.08903322  0.62920309     1.04600
Cu22       Cu  0.24620556  0.49802440  0.61821203     1.04300
C23         C  0.32066122  0.04435953  0.57523218     0.95900
C24         C  0.17134695  0.03920877  0.67257817     0.95100
C25         C  0.32471478  0.02092913  0.66737126     0.87200
C26         C  0.16820417  0.06545587  0.58120280     0.93500
O27         O  0.31426640  0.06206246  0.34553296    -0.70300
O28         O  0.20148725  0.08384989  0.41791593    -0.71200
O29         O  0.31585319  0.06790993  0.41692956    -0.59900
O30         O  0.19795874  0.07593762  0.34648425    -0.68300
O31         O  0.18744953  0.48802722  0.35192039    -0.67800
O32         O  0.30259204  0.97997090  0.41981974    -0.59100
O33         O  0.18682737  0.99622395  0.42148613    -0.71600
O34         O  0.30378643  0.47963475  0.34977988    -0.70400
Cu35       Cu  0.25778494  0.07552902  0.38154849     1.04600
Cu36       Cu  0.24607311  0.48386367  0.38646480     1.04300
C37         C  0.32679469  0.01491426  0.33615783     0.95900
C38         C  0.17622054  0.04402183  0.43101336     0.95100
C39         C  0.32796018  0.02221584  0.42908421     0.87200
C40         C  0.17340472  0.03269375  0.33778885     0.93500
C41         C  0.00080248  0.05288180  0.01800978     0.05000
C42         C  0.01285796  0.04714774  0.98339437     0.04900
C43         C  0.98046507  0.50219878  0.97130789    -0.15600
C44         C  0.99032600  0.45230747  0.98607436     0.05000
C45         C  0.01566843  0.45037739  0.01795467     0.04900
C46         C  0.50194171  0.49618323  0.03253389    -0.15600
H47         H  0.51771099  0.49423485  0.05793752     0.07000
H48         H  0.96183076  0.50366179  0.94663278     0.07000
O49         O  0.47738243  0.31674915  0.08487125    -0.70300
O50         O  0.46528950  0.19898077  0.15304982    -0.71200
O51         O  0.47349879  0.31170572  0.15596628    -0.59900
O52         O  0.46926155  0.20371465  0.08175316    -0.68300
O53         O  0.02313873  0.19216794  0.08125247    -0.67800
O54         O  0.04255315  0.30968211  0.14968727    -0.59100
O55         O  0.03727119  0.19662643  0.15194036    -0.71600
O56         O  0.02898048  0.30683109  0.07871930    -0.70400
Cu57       Cu  0.46827818  0.25792707  0.11880147     1.04600
Cu58       Cu  0.03618874  0.25129690  0.11501765     1.04300
C59         C  0.52449898  0.33394561  0.07533511     0.95900
C60         C  0.50869609  0.17807200  0.16455507     0.95100
C61         C  0.51939614  0.32622610  0.16823477     0.87200
C62         C  0.51350350  0.18263098  0.07108114     0.93500
C63         C  0.00484453  0.45480103  0.22965944     0.89200
C64         C  0.05327834  0.46297236  0.25348595    -0.51100
C65         C  0.05132331  0.00932260  0.27086691     0.12100
C66         C  0.99907749  0.04132437  0.26416011     0.23000
C67         C  0.45899381  0.45564880  0.25352072    -0.51800
C68         C  0.45234897  0.99635520  0.26802989     0.12200
C69         C  0.00347089  0.50534791  0.20821360    -0.51300
C70         C  0.50018654  0.04578159  0.22336430     0.12800
H71         H  0.08696503  0.43515697  0.25547610     0.17300
H72         H  0.99565377  0.07866139  0.27923238     0.03000
H73         H  0.43053377  0.42217102  0.25618870     0.17600
H74         H  0.00479651  0.50504072  0.18082841     0.17400
O75         O  0.43248844  0.19326870  0.91776359    -0.70300
O76         O  0.44717695  0.31161081  0.84965979    -0.71200
O77         O  0.43786795  0.19860270  0.84658360    -0.59900
O78         O  0.44185426  0.30834636  0.92097188    -0.68300
O79         O  0.04771723  0.30017599  0.92143404    -0.67800
O80         O  0.02888933  0.18878177  0.84973278    -0.59100
O81         O  0.04293720  0.30094674  0.84989487    -0.71600
O82         O  0.03340351  0.18719982  0.92059646    -0.70400
Cu83       Cu  0.43656685  0.25322980  0.88378420     1.04600
Cu84       Cu  0.04134369  0.24401284  0.88536333     1.04300
C85         C  0.98695321  0.17480336  0.93362018     0.95900
C86         C  0.99905635  0.32245095  0.83957470     0.95100
C87         C  0.98094312  0.17498813  0.84042288     0.87200
C88         C  0.00606874  0.32436947  0.93344963     0.93500
C89         C  0.45127922  0.06849381  0.52287381     0.05000
C90         C  0.44542693  0.05296340  0.48885858     0.04900
C91         C  0.99343488  0.04434950  0.46860472    -0.15600
C92         C  0.04457652  0.04009192  0.48394907     0.05000
C93         C  0.05046285  0.05557640  0.51796195     0.04500
C94         C  0.00467380  0.07523225  0.53574059    -0.15600
H95         H  0.00819266  0.08448569  0.56232705     0.07000
H96         H  0.98947647  0.03372636  0.44223109     0.07000
C97         C  0.00749385  0.40663824  0.20872788    -0.10600
C98         C  0.52016038  0.36650783  0.19384689    -0.12100
C99         C  0.50409618  0.13560760  0.18870280    -0.10600
C100        C  0.50099323  0.09687462  0.20667786    -0.12100
C101        C  0.98274100  0.13168129  0.95866424    -0.13700
C102        C  0.02113012  0.09384278  0.96109009    -0.28900
H103        H  0.43221545  0.10216493  0.95207169     0.15300
H104        H  0.05584074  0.09378900  0.94375870     0.15800
C105        C  0.97674552  0.40371783  0.96612461    -0.13700
C106        C  0.01499340  0.36723530  0.95856439    -0.28900
H107        H  0.41723694  0.40203834  0.94679979     0.15300
H108        H  0.05581747  0.37176766  0.96894210     0.15800
C109        C  0.52871668  0.38098048  0.05296678    -0.13700
C110        C  0.48588937  0.39745798  0.03486327    -0.28900
H111        H  0.56699211  0.40354366  0.05220637     0.15300
H112        H  0.06119285  0.39340804  0.04933458     0.15800
C113        C  0.50943649  0.14008192  0.04552879    -0.13700
C114        C  0.54807017  0.10276735  0.04116023    -0.28900
H115        H  0.47057035  0.13564935  0.03263769     0.15300
H116        H  0.04452551  0.12816673  0.03090336     0.15800
C117        C  0.39273814  0.05746718  0.47110911    -0.13700
C118        C  0.37372104  0.01675759  0.45245501    -0.28900
H119        H  0.37069743  0.09493204  0.47246748     0.15300
H120        H  0.39401639  0.97830100  0.45336679     0.15800
C121        C  0.09136746  0.02214367  0.46285447    -0.13700
C122        C  0.13427270  0.05489260  0.45703622    -0.28900
H123        H  0.08667758  0.98574475  0.44811866     0.15300
H124        H  0.13554415  0.09376134  0.46935351     0.15800
C125        C  0.37000798  0.00824437  0.31154526    -0.10600
C126        C  0.40747904  0.00384392  0.29161027    -0.12100
C127        C  0.12998312  0.03333984  0.31371176    -0.10600
C128        C  0.09322337  0.02575225  0.29415170    -0.12100
C129        C  0.10181644  0.04478979  0.53637056    -0.13700
C130        C  0.12211606  0.07908637  0.55922665    -0.28900
H131        H  0.12276505  0.00744765  0.53134733     0.15300
H132        H  0.10350296  0.11805794  0.56249252     0.15800
C133        C  0.40354038  0.07895337  0.54535094    -0.13700
C134        C  0.36289412  0.04258695  0.54842789    -0.28900
H135        H  0.40609692  0.11195412  0.56312886     0.15300
H136        H  0.36382431  0.00688642  0.53276903     0.15800
C137        C  0.97553981  0.13305169  0.81595792    -0.10600
C138        C  0.97681514  0.09435686  0.79784383    -0.12100
C139        C  0.00311870  0.39966379  0.79477736    -0.10600
C140        C  0.00215286  0.36270810  0.81411172    -0.12100
C141        C  0.09067853  0.02716166  0.71673523    -0.10600
C142        C  0.12828178  0.03634162  0.69753130    -0.12100
C143        C  0.40610787  0.00260817  0.70913135    -0.10600
C144        C  0.36866191  0.00982156  0.69008310    -0.12100
C145        C  0.50075545  0.95082546  0.77669280     0.89200
C146        C  0.45296561  0.94948258  0.75193952    -0.51100
C147        C  0.45096146  0.50484629  0.73489332     0.12100
C148        C  0.49591433  0.54590552  0.74427756     0.23000
C149        C  0.04922582  0.96208654  0.75580385    -0.51800
C150        C  0.05116152  0.50700071  0.73646799     0.12200
C151        C  0.49313702  0.00205583  0.79717293    -0.51300
C152        C  0.99667465  0.54529438  0.78163508     0.12800
H153        H  0.42368113  0.91657095  0.75025310     0.17300
H154        H  0.49404730  0.58415460  0.73013665     0.03000
H155        H  0.08508457  0.93672653  0.75527818     0.17600
H156        H  0.49072126  0.00295208  0.82452846     0.17400
O157        O  0.31209193  0.59223631  0.58951579    -0.70300
O158        O  0.19822601  0.58401369  0.66418546    -0.71200
O159        O  0.31485156  0.57616507  0.66021981    -0.59900
O160        O  0.19540368  0.60185789  0.59406999    -0.68300
O161        O  0.18635747  0.51443176  0.58539608    -0.67800
O162        O  0.29936511  0.98253605  0.65272333    -0.59100
O163        O  0.18351692  0.99673405  0.65648339    -0.71600
O164        O  0.30137101  0.50486129  0.58129278    -0.70400
Cu165      Cu  0.25555716  0.59169958  0.62726826     1.04600
Cu166      Cu  0.23924408  0.99621266  0.61919760     1.04300
C167        C  0.32445848  0.54923951  0.57375095     0.95900
C168        C  0.17608718  0.53864178  0.67091508     0.95100
C169        C  0.32988750  0.52852991  0.66633933     0.87200
C170        C  0.17134114  0.56245306  0.57983677     0.93500
O171        O  0.31168490  0.56813018  0.34682498    -0.70300
O172        O  0.19931530  0.58331994  0.42026329    -0.71200
O173        O  0.31488472  0.57329802  0.41818862    -0.59900
O174        O  0.19466574  0.57654260  0.34871077    -0.68300
O175        O  0.18640967  0.98786079  0.35041194    -0.67800
O176        O  0.30547748  0.48491720  0.42065402    -0.59100
O177        O  0.18897346  0.49506163  0.42296792    -0.71600
O178        O  0.30227382  0.97401218  0.34877533    -0.70400
Cu179      Cu  0.25533766  0.57847833  0.38336868     1.04600
Cu180      Cu  0.24401376  0.98143861  0.38525000     1.04300
C181        C  0.32618964  0.52163352  0.33722985     0.95900
C182        C  0.17609110  0.54200406  0.43296444     0.95100
C183        C  0.32947566  0.52799354  0.42984341     0.87200
C184        C  0.17209504  0.53242809  0.33969154     0.93500
C185        C  0.02206430  0.54824405  0.01885596     0.05000
C186        C  0.99697949  0.55011471  0.98688331     0.04900
C187        C  0.01358401  0.99603592  0.96888994    -0.15600
C188        C  0.00092570  0.95043734  0.98811771     0.05000
C189        C  0.98847589  0.95607919  0.02269123     0.04900
C190        C  0.54514556  0.00415157  0.03577015    -0.15600
H191        H  0.56275019  0.00241547  0.06072239     0.07000
H192        H  0.02156366  0.99194224  0.94209480     0.07000
O193        O  0.44755885  0.81209590  0.08220222    -0.70300
O194        O  0.44933457  0.69719776  0.15244916    -0.71200
O195        O  0.45886106  0.80984730  0.15314629    -0.59900
O196        O  0.43812535  0.69899042  0.08134605    -0.68300
O197        O  0.04663227  0.68965636  0.08229828    -0.67800
O198        O  0.05569525  0.80700919  0.15213788    -0.59100
O199        O  0.04739624  0.69414092  0.15389520    -0.71600
O200        O  0.05570098  0.80353881  0.08060425    -0.70400
Cu201      Cu  0.44539086  0.75473736  0.11741839     1.04600
Cu202      Cu  0.05459870  0.74833887  0.11714608     1.04300
C203        C  0.49232468  0.82847055  0.06872350     0.95900
C204        C  0.49480380  0.67665201  0.16082865     0.95100
C205        C  0.50706569  0.82431893  0.16162197     0.87200
C206        C  0.47978857  0.67708425  0.06771402     0.93500
C207        C  0.00728596  0.95401884  0.22872365     0.89200
C208        C  0.05558361  0.96342571  0.25241800    -0.51100
C209        C  0.05013282  0.50905087  0.27193406     0.12100
C210        C  0.99878720  0.54244273  0.26492464     0.23000
C211        C  0.45770163  0.95035763  0.24984406    -0.51800
C212        C  0.45235752  0.50313670  0.26994256     0.12200
C213        C  0.00443144  0.00469569  0.20733372    -0.51300
C214        C  0.49946998  0.54937999  0.22390009     0.12800
H215        H  0.09015861  0.93661801  0.25422384     0.17300
H216        H  0.99615892  0.57995257  0.27988712     0.03000
H217        H  0.42854440  0.91729415  0.25149636     0.17600
H218        H  0.00590925  0.00459494  0.17995735     0.17400
O219        O  0.46144449  0.69892347  0.92929651    -0.70300
O220        O  0.46015336  0.81348079  0.85837989    -0.71200
O221        O  0.45158379  0.70064753  0.85815730    -0.59900
O222        O  0.47016659  0.81392303  0.92953128    -0.68300
O223        O  0.07178257  0.81023103  0.91684305    -0.67800
O224        O  0.05369139  0.69092436  0.85043015    -0.59100
O225        O  0.05577317  0.80369844  0.84683850    -0.71600
O226        O  0.06934958  0.69595919  0.92133751    -0.70400
Cu227      Cu  0.45758234  0.75697253  0.89416553     1.04600
Cu228      Cu  0.06583241  0.75002530  0.88371796     1.04300
C229        C  0.02620691  0.67756080  0.93589972     0.95900
C230        C  0.00861090  0.82189987  0.83984451     0.95100
C231        C  0.00574148  0.67415133  0.84308365     0.87200
C232        C  0.02961745  0.83001384  0.93117326     0.93500
C233        C  0.45448980  0.57483966  0.52234724     0.05000
C234        C  0.44927859  0.55961922  0.48825062     0.04900
C235        C  0.99321362  0.53262652  0.47064950    -0.15600
C236        C  0.04479960  0.52976450  0.48556574     0.05000
C237        C  0.05089161  0.54500138  0.51954886     0.04500
C238        C  0.00517231  0.56361832  0.53772691    -0.15600
H239        H  0.00922189  0.57329357  0.56422870     0.07000
H240        H  0.98918629  0.52247847  0.44421117     0.07000
C241        C  0.01190989  0.90563848  0.20804659    -0.10600
C242        C  0.51331855  0.86451937  0.18709008    -0.12100
C243        C  0.49530897  0.63573594  0.18606449    -0.10600
C244        C  0.49637280  0.59860544  0.20533210    -0.12100
C245        C  0.03132787  0.63395376  0.96075545    -0.13700
C246        C  0.98924555  0.60055450  0.96792444    -0.28900
H247        H  0.54770991  0.62326807  0.97244289     0.15300
H248        H  0.95024576  0.60605024  0.95549739     0.15800
C249        C  0.99571251  0.89797504  0.97105311    -0.13700
C250        C  0.03642184  0.87839772  0.95198785    -0.28900
H251        H  0.45124434  0.90958930  0.95438269     0.15300
H252        H  0.07524214  0.89999898  0.95043285     0.15800
C253        C  0.49038626  0.87355327  0.04487229    -0.13700
C254        C  0.53365614  0.90601506  0.03912887    -0.28900
H255        H  0.45087157  0.88362105  0.03437893     0.15300
H256        H  0.94542884  0.90971332  0.06257408     0.15800
C257        C  0.47066910  0.63350037  0.04323568    -0.13700
C258        C  0.50748977  0.59475291  0.03791336    -0.28900
H259        H  0.43048050  0.63013367  0.03184716     0.15300
H260        H  0.07178954  0.59934223  0.05290301     0.15800
C261        C  0.39708115  0.56514611  0.46993968    -0.13700
C262        C  0.37643869  0.52373207  0.45253447    -0.28900
H263        H  0.37606351  0.60320624  0.47061495     0.15300
H264        H  0.39598909  0.48497740  0.45425750     0.15800
C265        C  0.09211033  0.51508205  0.46394665    -0.13700
C266        C  0.13361933  0.54989723  0.45901729    -0.28900
H267        H  0.08897181  0.47942846  0.44836229     0.15300
H268        H  0.13321385  0.58808676  0.47216002     0.15800
C269        C  0.36937587  0.51664290  0.31255650    -0.10600
C270        C  0.40702133  0.51190729  0.29285954    -0.12100
C271        C  0.12847912  0.53170669  0.31557969    -0.10600
C272        C  0.09199034  0.52425194  0.29571746    -0.12100
C273        C  0.10312246  0.53635259  0.53731674    -0.13700
C274        C  0.12400988  0.57315787  0.55830201    -0.28900
H275        H  0.12438346  0.49891970  0.53317513     0.15300
H276        H  0.10464306  0.61195363  0.56054833     0.15800
C277        C  0.40626875  0.58576342  0.54410625    -0.13700
C278        C  0.36626653  0.54879744  0.54687679    -0.28900
H279        H  0.40833935  0.61863534  0.56200332     0.15300
H280        H  0.36803814  0.51312380  0.53121086     0.15800
C281        C  0.99970106  0.63284263  0.81839034    -0.10600
C282        C  0.99687340  0.59524354  0.79952725    -0.12100
C283        C  0.00024162  0.89920179  0.79532615    -0.10600
C284        C  0.00383720  0.86213210  0.81446251    -0.12100
C285        C  0.09531579  0.52443628  0.71458680    -0.10600
C286        C  0.13288801  0.53427604  0.69556539    -0.12100
C287        C  0.40927445  0.51417120  0.71012718    -0.10600
C288        C  0.37322928  0.52022904  0.68994010    -0.12100
C289        C  0.00188958  0.44934710  0.77549913     0.89200
C290        C  0.95302283  0.45339422  0.75180013    -0.51100
C291        C  0.94789890  0.99568386  0.73234031     0.12100
C292        C  0.99127821  0.03783887  0.74237137     0.23000
C293        C  0.55227914  0.46848729  0.75675593    -0.51800
C294        C  0.54918836  0.00597406  0.73579438     0.12200
C295        C  0.99807463  0.49815251  0.79855491    -0.51300
C296        C  0.49011408  0.04682121  0.77791322     0.12800
H297        H  0.92236685  0.42194471  0.74883289     0.17300
H298        H  0.98888975  0.07597961  0.72815149     0.03000
H299        H  0.58747687  0.44229938  0.75580005     0.17600
H300        H  0.99761269  0.49575727  0.82590086     0.17400
O301        O  0.81104499  0.09399577  0.58912844    -0.70300
O302        O  0.69708381  0.08286625  0.66400790    -0.71200
O303        O  0.81360050  0.07272526  0.65946379    -0.59900
O304        O  0.69425004  0.10552643  0.59432276    -0.68300
O305        O  0.68394584  0.01879128  0.58362269    -0.67800
O306        O  0.80319999  0.48949083  0.65493069    -0.59100
O307        O  0.68743744  0.50223947  0.65846159    -0.71600
O308        O  0.79860678  0.00741743  0.57882042    -0.70400
Cu309      Cu  0.75448160  0.09192547  0.62709112     1.04600
Cu310      Cu  0.74277825  0.50010567  0.62118787     1.04300
C311        C  0.82258763  0.05178500  0.57227493     0.95900
C312        C  0.67405703  0.03752359  0.66969092     0.95100
C313        C  0.82748279  0.02433334  0.66428907     0.87200
C314        C  0.66961408  0.06729076  0.57921483     0.93500
O315        O  0.81073178  0.06956531  0.34515907    -0.70300
O316        O  0.69712216  0.08830126  0.41771919    -0.71200
O317        O  0.81282011  0.07690529  0.41649472    -0.59900
O318        O  0.69382518  0.07946013  0.34609256    -0.68300
O319        O  0.68345301  0.49648423  0.35115443    -0.67800
O320        O  0.80244706  0.98869990  0.41985978    -0.59100
O321        O  0.68606873  0.00023368  0.42149917    -0.71600
O322        O  0.79900312  0.48345170  0.34794227    -0.70400
Cu323      Cu  0.75383433  0.08174290  0.38121296     1.04600
Cu324      Cu  0.74237134  0.48785293  0.38506505     1.04300
C325        C  0.82473787  0.02256751  0.33623975     0.95900
C326        C  0.67344880  0.04756009  0.43087478     0.95100
C327        C  0.82690555  0.03175252  0.42863595     0.87200
C328        C  0.67104161  0.03524294  0.33746984     0.93500
C329        C  0.53654811  0.05409381  0.02083744     0.05000
C330        C  0.51274744  0.05661241  0.98859836     0.04900
C331        C  0.45522406  0.50161910  0.96874045    -0.15600
C332        C  0.46386898  0.45146319  0.98341523     0.05000
C333        C  0.48619489  0.44869609  0.01605330     0.04900
C334        C  0.03233532  0.49830820  0.03351147    -0.15600
H335        H  0.05065396  0.49684385  0.05827521     0.07000
H336        H  0.43872959  0.50361882  0.94350565     0.07000
O337        O  0.93853690  0.30831572  0.08471380    -0.70300
O338        O  0.94714872  0.20116088  0.15975886    -0.71200
O339        O  0.95208568  0.31377651  0.15577024    -0.59900
O340        O  0.93314683  0.19421246  0.08968025    -0.68300
O341        O  0.55986458  0.19720432  0.08294958    -0.67800
O342        O  0.56431478  0.30671256  0.15737947    -0.59100
O343        O  0.55604739  0.19356712  0.15442044    -0.71600
O344        O  0.56809158  0.31225002  0.08616441    -0.70400
Cu345      Cu  0.93959243  0.25464819  0.12259408     1.04600
Cu346      Cu  0.56537636  0.25219590  0.12015485     1.04300
C347        C  0.98246030  0.32547182  0.07045080     0.95900
C348        C  0.99354942  0.18176235  0.16728048     0.95100
C349        C  0.00011634  0.32957153  0.16368204     0.87200
C350        C  0.97509470  0.17329097  0.07578430     0.93500
C351        C  0.51060832  0.45418627  0.23131501     0.89200
C352        C  0.55802142  0.46831918  0.25481495    -0.51100
C353        C  0.55171298  0.00697491  0.26899796     0.12100
C354        C  0.49879964  0.03772389  0.26181876     0.23000
C355        C  0.95356933  0.45732988  0.25212508    -0.51800
C356        C  0.95174256  0.00095292  0.26988587     0.12200
C357        C  0.50596997  0.50196267  0.20761945    -0.51300
C358        C  0.00023108  0.05031141  0.22588872     0.12800
H359        H  0.59339813  0.44299726  0.25830674     0.17300
H360        H  0.49460191  0.07533849  0.27652713     0.03000
H361        H  0.92246704  0.42593793  0.25317310     0.17600
H362        H  0.50820103  0.49869554  0.18032813     0.17400
O363        O  0.94355554  0.19891290  0.92479903    -0.70300
O364        O  0.95241259  0.30949037  0.85198887    -0.71200
O365        O  0.93842716  0.19676177  0.85319922    -0.59900
O366        O  0.95781941  0.31228655  0.92344016    -0.68300
O367        O  0.53233600  0.30113773  0.92290317    -0.67800
O368        O  0.52858768  0.19294631  0.84861410    -0.59100
O369        O  0.53787347  0.30565129  0.85166607    -0.71600
O370        O  0.52310880  0.18803565  0.91965588    -0.70400
Cu371      Cu  0.94479837  0.25474423  0.88850077     1.04600
Cu372      Cu  0.53356487  0.24676513  0.88584198     1.04300
C373        C  0.47568742  0.17120980  0.92886987     0.95900
C374        C  0.49479960  0.32684076  0.83992004     0.95100
C375        C  0.48280269  0.17865922  0.83607523     0.87200
C376        C  0.48806664  0.32269003  0.93316824     0.93500
C377        C  0.95305720  0.07812711  0.52061876     0.05000
C378        C  0.94764716  0.06341778  0.48642902     0.04900
C379        C  0.49150874  0.03617974  0.47039390    -0.15600
C380        C  0.54339918  0.03533108  0.48488255     0.05000
C381        C  0.54961978  0.05130515  0.51871279     0.04500
C382        C  0.50355289  0.06839041  0.53723957    -0.15600
H383        H  0.50775799  0.07833212  0.56368950     0.07000
H384        H  0.48728787  0.02540756  0.44406003     0.07000
C385        C  0.51739788  0.40403698  0.21277249    -0.10600
C386        C  0.00606343  0.37045988  0.18870011    -0.12100
C387        C  0.99623096  0.14072954  0.19226718    -0.10600
C388        C  0.99798063  0.10177574  0.20995432    -0.12100
C389        C  0.47076017  0.12427503  0.95127222    -0.13700
C390        C  0.51339980  0.10751554  0.96943406    -0.28900
H391        H  0.94550890  0.12860872  0.97379880     0.15300
H392        H  0.55053161  0.13182760  0.97037693     0.15800
C393        C  0.45327561  0.40298089  0.96265029    -0.13700
C394        C  0.49185454  0.36545942  0.95867141    -0.28900
H395        H  0.93748778  0.40212310  0.95347805     0.15300
H396        H  0.53033534  0.36966228  0.97200678     0.15800
C397        C  0.97889315  0.36855501  0.04511980    -0.13700
C398        C  0.02215733  0.40002936  0.03718913    -0.28900
H399        H  0.93871901  0.37830026  0.03546688     0.15300
H400        H  0.44898925  0.37282812  0.03379713     0.15800
C401        C  0.96735388  0.12490750  0.05502385    -0.13700
C402        C  0.00692315  0.10537718  0.03504331    -0.28900
H403        H  0.92853522  0.10343429  0.05721406     0.15300
H404        H  0.58459928  0.10385574  0.05658174     0.15800
C405        C  0.89525090  0.06906862  0.46830046    -0.13700
C406        C  0.87394269  0.02751101  0.45132300    -0.28900
H407        H  0.87472161  0.10738996  0.46868276     0.15300
H408        H  0.89311132  0.98860701  0.45331865     0.15800
C409        C  0.59057912  0.02081564  0.46309993    -0.13700
C410        C  0.63087974  0.05643659  0.45679510    -0.28900
H411        H  0.58827313  0.98392127  0.44865225     0.15300
H412        H  0.62969084  0.09542612  0.46893893     0.15800
C413        C  0.86836100  0.01609874  0.31200701    -0.10600
C414        C  0.90630045  0.01010716  0.29267112    -0.12100
C415        C  0.62832450  0.03384092  0.31280850    -0.10600
C416        C  0.59266301  0.02467290  0.29267605    -0.12100
C417        C  0.60220799  0.04343005  0.53610909    -0.13700
C418        C  0.62242134  0.07937631  0.55790438    -0.28900
H419        H  0.62419934  0.00661321  0.53123065     0.15300
H420        H  0.60253468  0.11774518  0.56112299     0.15800
C421        C  0.90492954  0.08863801  0.54276139    -0.13700
C422        C  0.86437938  0.05207688  0.54521712    -0.28900
H423        H  0.90749135  0.12082680  0.56111862     0.15300
H424        H  0.86556871  0.01701699  0.52899896     0.15800
C425        C  0.48208231  0.13770354  0.81085328    -0.10600
C426        C  0.48448007  0.09864260  0.79317734    -0.12100
C427        C  0.50187730  0.40691403  0.79706412    -0.10600
C428        C  0.49986282  0.36911210  0.81578730    -0.12100
C429        C  0.59347835  0.02269247  0.71367077    -0.10600
C430        C  0.63097589  0.03242193  0.69449443    -0.12100
C431        C  0.90628326  0.00515172  0.70760286    -0.10600
C432        C  0.87049788  0.01324879  0.68757654    -0.12100
C433        C  0.99682296  0.94858965  0.77572065     0.89200
C434        C  0.95074984  0.94880693  0.74976980    -0.51100
C435        C  0.95150727  0.50066614  0.73478620     0.12100
C436        C  0.99898116  0.53957178  0.74307748     0.23000
C437        C  0.55216260  0.96092109  0.75504736    -0.51800
C438        C  0.54995717  0.51553189  0.73939004     0.12200
C439        C  0.98649988  0.99738052  0.79810355    -0.51300
C440        C  0.49031859  0.55219060  0.78271438     0.12800
H441        H  0.92267585  0.91541101  0.74582792     0.17300
H442        H  0.99780417  0.57818764  0.72929424     0.03000
H443        H  0.58765141  0.93508074  0.75506192     0.17600
H444        H  0.98260677  0.99533598  0.82537304     0.17400
O445        O  0.81262788  0.59019123  0.59090203    -0.70300
O446        O  0.69853896  0.58975319  0.66603214    -0.71200
O447        O  0.81485278  0.57706207  0.66196118    -0.59900
O448        O  0.69640577  0.60500357  0.59548905    -0.68300
O449        O  0.68365715  0.51769377  0.58809398    -0.67800
O450        O  0.80371742  0.98587669  0.64880128    -0.59100
O451        O  0.68778822  0.99607803  0.65303534    -0.71600
O452        O  0.79816662  0.50302324  0.58408980    -0.70400
Cu453      Cu  0.75613296  0.59364480  0.62882111     1.04600
Cu454      Cu  0.74327620  0.99909207  0.61571117     1.04300
C455        C  0.82313769  0.54609846  0.57578363     0.95900
C456        C  0.67464931  0.54546610  0.67348401     0.95100
C457        C  0.82793204  0.52907596  0.66871639     0.87200
C458        C  0.67077438  0.56608795  0.58176282     0.93500
O459        O  0.81083890  0.57171054  0.34697952    -0.70300
O460        O  0.70031234  0.58721301  0.42117031    -0.71200
O461        O  0.81496121  0.57247119  0.41834682    -0.59900
O462        O  0.69435574  0.58479389  0.34949412    -0.68300
O463        O  0.68550430  0.99115415  0.35051418    -0.67800
O464        O  0.80239429  0.48433750  0.41868844    -0.59100
O465        O  0.68681968  0.49921812  0.42229694    -0.71600
O466        O  0.80149501  0.98127975  0.34912791    -0.70400
Cu467      Cu  0.75540998  0.58222434  0.38392884     1.04600
Cu468      Cu  0.74344908  0.98734468  0.38542287     1.04300
C469        C  0.82326726  0.52517359  0.33638957     0.95900
C470        C  0.67610821  0.54608103  0.43337584     0.95100
C471        C  0.82799960  0.52595763  0.42881684     0.87200
C472        C  0.66998075  0.54201020  0.33972890     0.93500
C473        C  0.49404461  0.54641381  0.01765772     0.05000
C474        C  0.47084791  0.54908919  0.98513888     0.04900
C475        C  0.49544386  0.00909005  0.97279208    -0.15600
C476        C  0.50336998  0.95907403  0.98792987     0.05000
C477        C  0.52802925  0.95663799  0.02004611     0.04900
C478        C  0.98793328  0.00723758  0.03723629    -0.15600
H479        H  0.98000276  0.01129522  0.06403425     0.07000
H480        H  0.47869657  0.01074556  0.94762256     0.07000
O481        O  0.96527972  0.81219111  0.08271814    -0.70300
O482        O  0.95648350  0.69836679  0.15374605    -0.71200
O483        O  0.96478294  0.81094345  0.15359912    -0.59900
O484        O  0.95627028  0.69843071  0.08196317    -0.68300
O485        O  0.52831541  0.69186628  0.07569542    -0.67800
O486        O  0.54928502  0.80435600  0.14741547    -0.59100
O487        O  0.53973793  0.69136167  0.14679304    -0.71600
O488        O  0.53788492  0.80699553  0.07635294    -0.70400
Cu489      Cu  0.95754076  0.75504955  0.11793589     1.04600
Cu490      Cu  0.54205617  0.74840565  0.11121464     1.04300
C491        C  0.01208533  0.82630447  0.07088407     0.95900
C492        C  0.00073452  0.67935874  0.16540859     0.95100
C493        C  0.01146326  0.82686938  0.16391430     0.87200
C494        C  0.99959297  0.67567728  0.07114334     0.93500
C495        C  0.50894080  0.94974282  0.22726717     0.89200
C496        C  0.55706052  0.96070025  0.25094612    -0.51100
C497        C  0.55138926  0.51591152  0.27120051     0.12100
C498        C  0.49794021  0.54485682  0.26258508     0.23000
C499        C  0.95603775  0.95515259  0.25133928    -0.51800
C500        C  0.95038728  0.50328639  0.27055406     0.12200
C501        C  0.50518444  0.99974070  0.20537585    -0.51300
C502        C  0.00023265  0.55110626  0.22659296     0.12800
H503        H  0.59209321  0.93455535  0.25313598     0.17300
H504        H  0.49257409  0.58359012  0.27591951     0.03000
H505        H  0.92587960  0.92290937  0.25248106     0.17600
H506        H  0.50771445  0.99898163  0.17802166     0.17400
O507        O  0.97903439  0.69535054  0.92827548    -0.70300
O508        O  0.96578089  0.80598818  0.85570514    -0.71200
O509        O  0.96331915  0.69304170  0.85762165    -0.59900
O510        O  0.98194100  0.81002330  0.92610847    -0.68300
O511        O  0.56049964  0.80733597  0.92443757    -0.67800
O512        O  0.54214289  0.69548922  0.85315771    -0.59100
O513        O  0.55069025  0.80807351  0.85330752    -0.71600
O514        O  0.55193014  0.69433107  0.92424703    -0.70400
Cu515      Cu  0.96936797  0.75108240  0.89236126     1.04600
Cu516      Cu  0.55441498  0.75114033  0.88868690     1.04300
C517        C  0.50696086  0.67784745  0.93741255     0.95900
C518        C  0.50521220  0.82814916  0.84451391     0.95100
C519        C  0.49418318  0.68078097  0.84434092     0.87200
C520        C  0.51847389  0.82901212  0.93776372     0.93500
C521        C  0.95337638  0.56614523  0.52289515     0.05000
C522        C  0.94741580  0.55105336  0.48880338     0.04900
C523        C  0.49508554  0.54017339  0.47071479    -0.15600
C524        C  0.54593047  0.53601545  0.48632590     0.05000
C525        C  0.55150095  0.55164676  0.52027154     0.04500
C526        C  0.50577193  0.57168094  0.53779541    -0.15600
H527        H  0.50915670  0.58130631  0.56434301     0.07000
H528        H  0.49149150  0.52956001  0.44431655     0.07000
C529        C  0.51386499  0.90111790  0.20685652    -0.10600
C530        C  0.01366975  0.86850043  0.18871307    -0.12100
C531        C  0.99827130  0.63964856  0.19126380    -0.10600
C532        C  0.99837226  0.60209335  0.21013465    -0.12100
C533        C  0.50851660  0.63292316  0.96136195    -0.13700
C534        C  0.46542377  0.59991687  0.96628921    -0.28900
H535        H  0.07171885  0.62552457  0.97056796     0.15300
H536        H  0.42786588  0.60641112  0.95247841     0.15800
C537        C  0.48962309  0.91054877  0.96801951    -0.13700
C538        C  0.52707305  0.87260278  0.96222325    -0.28900
H539        H  0.95789814  0.87523366  0.97447067     0.15300
H540        H  0.56750148  0.87673578  0.97321240     0.15800
C541        C  0.01668054  0.86999125  0.04628939    -0.13700
C542        C  0.97954757  0.90914971  0.04480760    -0.28900
H543        H  0.05373821  0.87261393  0.03096811     0.15300
H544        H  0.57175790  0.89916206  0.05229123     0.15800
C545        C  0.99379114  0.63241651  0.04596958    -0.13700
C546        C  0.03342094  0.59689643  0.03931640    -0.28900
H547        H  0.95379230  0.62680216  0.03462965     0.15300
H548        H  0.54542296  0.59513611  0.05201404     0.15800
C549        C  0.89500564  0.55784553  0.47085409    -0.13700
C550        C  0.87495464  0.51877472  0.45120660    -0.28900
H551        H  0.87334694  0.59537017  0.47348572     0.15300
H552        H  0.89473366  0.48002794  0.45089256     0.15800
C553        C  0.59316937  0.51985418  0.46526963    -0.13700
C554        C  0.63487845  0.55419070  0.46003764    -0.28900
H555        H  0.58932496  0.48418365  0.44975296     0.15300
H556        H  0.63519500  0.59240760  0.47316281     0.15800
C557        C  0.86665604  0.51958267  0.31201952    -0.10600
C558        C  0.90484264  0.51359792  0.29293762    -0.12100
C559        C  0.62678241  0.54370327  0.31540631    -0.10600
C560        C  0.59115063  0.53537028  0.29511362    -0.12100
C561        C  0.60283050  0.54158351  0.53871436    -0.13700
C562        C  0.62423779  0.57793251  0.55981266    -0.28900
H563        H  0.62303013  0.50349412  0.53494287     0.15300
H564        H  0.60611272  0.61735221  0.56166492     0.15800
C565        C  0.90587421  0.57857802  0.54504906    -0.13700
C566        C  0.86478558  0.54292285  0.54874218    -0.28900
H567        H  0.90913436  0.61214073  0.56236260     0.15300
H568        H  0.86511477  0.50664771  0.53359269     0.15800
C569        C  0.48851250  0.64020217  0.81908177    -0.10600
C570        C  0.48738398  0.60245901  0.80022888    -0.12100
C571        C  0.50361628  0.90366777  0.79837824    -0.10600
C572        C  0.50474082  0.86814921  0.81877978    -0.12100
C573        C  0.59425189  0.53368400  0.71773327    -0.10600
C574        C  0.63170395  0.54321649  0.69849886    -0.12100
C575        C  0.90844738  0.51226231  0.71134467    -0.10600
C576        C  0.87155208  0.51979765  0.69196495    -0.12100
loop_ 
_geom_bond_atom_site_label_1 
_geom_bond_atom_site_label_2 
_geom_bond_distance 
_geom_bond_site_symmetry_2 
_ccdc_geom_bond_type 
C1            C2   1.531       .  S
C1            C7   1.528       .  S
C1          C293   1.534       .  S
C1          C427   1.464       .  S
C2            H9   1.087       .  S
C2          C147   1.363       .  D
C3            C4   1.542   1_565  S
C3          C146   1.364       .  D
C3          C143   1.444   1_565  S
C4          C296   1.537       .  S
C4          C294   1.541       .  S
C4           H10   1.111       .  S
C5          C289   1.533       .  S
C5           H11   1.087       .  S
C5          C150   1.365       .  D
C6          C292   1.541   1_455  S
C6          C149   1.364   1_545  D
C6          C141   1.445       .  S
C7           H12   1.087       .  S
C7          C440   1.360       .  D
C8          C292   1.538       .  S
C8          C439   1.361   1_545  D
C8          C138   1.440       .  S
O13         Cu21   2.033       .  S
O13          C23   1.281       .  A
O14         Cu21   2.030       .  S
O14          C24   1.279       .  A
O15         Cu21   2.004       .  S
O15          C25   1.275       .  A
O16         Cu21   2.005       .  S
O16          C26   1.276       .  A
O17        Cu166   2.016   1_545  S
O17          C26   1.280       .  A
O18         Cu22   2.023       .  S
O18         C169   1.279       .  A
O19         Cu22   1.994       .  S
O19         C168   1.274       .  A
O20        Cu166   1.995   1_545  S
O20          C23   1.275       .  A
Cu21       Cu166   2.377   1_545  S
Cu22        O161   2.013       .  S
Cu22        O164   1.988       .  S
Cu22       Cu165   2.378       .  S
C23         C134   1.476       .  S
C24         O163   1.275   1_545  A
C24         C142   1.439       .  S
C25         O162   1.279   1_545  A
C25         C144   1.438       .  S
C26         C130   1.474       .  S
O27         Cu35   2.008       .  S
O27          C37   1.275       .  A
O28         Cu35   1.996       .  S
O28          C38   1.275       .  A
O29         Cu35   2.016       .  S
O29          C39   1.280       .  A
O30         Cu35   2.028       .  S
O30          C40   1.279       .  A
O31         Cu36   1.995       .  S
O31         C184   1.274       .  A
O32        Cu180   1.992       .  S
O32          C39   1.274   1_565  A
O33        Cu180   2.032       .  S
O33          C38   1.281   1_565  A
O34         Cu36   2.020       .  S
O34         C181   1.278       .  A
Cu35       Cu180   2.377   1_545  S
Cu36        O176   1.996       .  S
Cu36        O177   2.023       .  S
Cu36       Cu179   2.377       .  S
C37         O178   1.280   1_545  A
C37         C125   1.442       .  S
C38         C122   1.475       .  S
C39         C118   1.467       .  S
C40         O175   1.273   1_545  A
C40         C127   1.435       .  S
C41         C402   1.482       .  S
C41          C42   1.410   1_554  A
C41         C478   1.405   1_455  A
C42         C102   1.478       .  S
C42         C187   1.401   1_545  A
C43          C44   1.403       .  A
C43         C186   1.404       .  A
C43          H48   1.085       .  S
C44         C105   1.485       .  S
C44          C45   1.415   1_656  A
C45         C398   1.484       .  S
C45         C334   1.405       .  A
C46         C473   1.405       .  A
C46         C333   1.406       .  A
C46          H47   1.084       .  S
O49         Cu57   2.005       .  S
O49          C59   1.278       .  A
O50         Cu57   2.007       .  S
O50          C60   1.276       .  A
O51         Cu57   1.999       .  S
O51          C61   1.275       .  A
O52         Cu57   1.999       .  S
O52          C62   1.276       .  A
O53         Cu58   2.019       .  S
O53         C350   1.280   1_455  A
O54         Cu58   2.010       .  S
O54         C349   1.276       .  A
O55         Cu58   2.007       .  S
O55         C348   1.276   1_455  A
O56         Cu58   2.013       .  S
O56         C347   1.278   1_455  A
Cu57       Cu346   2.378       .  S
Cu58       Cu345   2.377   1_455  S
C59         O344   1.278       .  A
C59         C109   1.477       .  S
C60         O343   1.277       .  A
C60          C99   1.435       .  S
C61         O342   1.276       .  A
C61          C98   1.430       .  S
C62         O341   1.279       .  A
C62         C113   1.472       .  S
C63          C64   1.533       .  S
C63          C69   1.526       .  S
C63         C355   1.532   1_455  S
C63          C97   1.464       .  S
C64          H71   1.086       .  S
C64         C209   1.367       .  D
C65          C66   1.539   1_455  S
C65         C208   1.365   1_545  D
C65         C128   1.441       .  S
C66         C358   1.536   1_655  S
C66         C356   1.542       .  S
C66          H72   1.111       .  S
C67         C351   1.532       .  S
C67          H73   1.087       .  S
C67         C212   1.364       .  D
C68         C354   1.545   1_565  S
C68         C211   1.364       .  D
C68         C126   1.448   1_565  S
C69          H74   1.087       .  S
C69         C502   1.359       .  D
C70         C354   1.540       .  S
C70         C501   1.360   1_545  D
C70         C100   1.440       .  S
O75         Cu83   2.020       .  S
O75         C373   1.278       .  A
O76         Cu83   2.006       .  S
O76         C374   1.276       .  A
O77         Cu83   2.010       .  S
O77         C375   1.276       .  A
O78         Cu83   2.022       .  S
O78         C376   1.280       .  A
O79         Cu84   2.010       .  S
O79          C88   1.277       .  A
O80         Cu84   1.998       .  S
O80          C87   1.275   1_455  A
O81         Cu84   2.004       .  S
O81          C86   1.275   1_455  A
O82         Cu84   2.002       .  S
O82          C85   1.277   1_455  A
Cu83       Cu372   2.378       .  S
Cu84       Cu371   2.378   1_455  S
C85         O363   1.277       .  A
C85         C101   1.470       .  S
C86         O364   1.275       .  A
C86         C140   1.429   1_655  S
C87         O365   1.278       .  A
C87         C137   1.434       .  S
C88         O366   1.280   1_455  A
C88         C106   1.478       .  S
C89         C133   1.487       .  S
C89          C90   1.413       .  A
C89         C382   1.403       .  A
C90         C117   1.478       .  S
C90         C379   1.405       .  A
C91          C92   1.400   1_655  A
C91         C378   1.405       .  A
C91          H96   1.085       .  S
C92         C121   1.483       .  S
C92          C93   1.412       .  A
C93         C129   1.485       .  S
C93          C94   1.409       .  A
C94         C377   1.404   1_455  A
C94          H95   1.084       .  S
C97         C386   1.204       .  T
C98         C385   1.203       .  T
C99         C100   1.205       .  T
C101        H391   1.087       .  S
C101        C102   1.343   1_655  D
C102        H104   1.087       .  S
H103        C389   1.086       .  S
C105        H395   1.087       .  S
C105        C106   1.344   1_655  D
C106        H108   1.087       .  S
H107        C393   1.087       .  S
C109        H111   1.087       .  S
C109        C110   1.343       .  D
C110        H400   1.087       .  S
C110        C333   1.484       .  S
H112        C398   1.087       .  S
C113        H115   1.087       .  S
C113        C114   1.344       .  D
C114        H404   1.087       .  S
C114        C329   1.485       .  S
H116        C402   1.087       .  S
C117        H119   1.086       .  S
C117        C118   1.339       .  D
C118        H120   1.087   1_545  S
C121        H123   1.087   1_545  S
C121        C122   1.341       .  D
C122        H124   1.087       .  S
C125        C126   1.210       .  T
C127        C128   1.206       .  T
C129        H131   1.087       .  S
C129        C130   1.342       .  D
C130        H132   1.087       .  S
C133        H135   1.087       .  S
C133        C134   1.343       .  D
C134        H136   1.087       .  S
C137        C138   1.205       .  T
C139        C289   1.461       .  S
C139        C140   1.202       .  T
C141        C142   1.208       .  T
C143        C144   1.207       .  T
C145        C146   1.533       .  S
C145        C151   1.528   1_565  S
C145        C437   1.533       .  S
C145        C571   1.464       .  S
C146        H153   1.087       .  S
C147        C148   1.542       .  S
C147        C287   1.443       .  S
C148        C440   1.539       .  S
C148        C438   1.540       .  S
C148        H154   1.111       .  S
C149        C433   1.533   1_455  S
C149        H155   1.087       .  S
C150        C436   1.540   1_455  S
C150        C285   1.442       .  S
C151        H156   1.087       .  S
C151        C296   1.360       .  D
C152        C436   1.538       .  S
C152        C295   1.359       .  D
C152        C282   1.436       .  S
O157       Cu165   2.028       .  S
O157        C167   1.281       .  A
O158       Cu165   2.025       .  S
O158        C168   1.279       .  A
O159       Cu165   2.002       .  S
O159        C169   1.275       .  A
O160       Cu165   2.001       .  S
O160        C170   1.275       .  A
O161        C170   1.279       .  A
O162       Cu166   2.023       .  S
O163       Cu166   2.001       .  S
O164        C167   1.274       .  A
C167        C278   1.470       .  S
C168        C286   1.436       .  S
C169        C288   1.437       .  S
C170        C274   1.471       .  S
O171       Cu179   2.008       .  S
O171        C181   1.276       .  A
O172       Cu179   1.999       .  S
O172        C182   1.275       .  A
O173       Cu179   2.021       .  S
O173        C183   1.280       .  A
O174       Cu179   2.032       .  S
O174        C184   1.280       .  A
O175       Cu180   1.990       .  S
O176        C183   1.275       .  A
O177        C182   1.280       .  A
O178       Cu180   2.030       .  S
C181        C269   1.439       .  S
C182        C266   1.472       .  S
C183        C262   1.470       .  S
C184        C271   1.439       .  S
C185        C546   1.487       .  S
C185        C186   1.416   1_454  A
C185        C334   1.404       .  A
C186        C246   1.485       .  S
C187        C188   1.403       .  A
C187        H192   1.085       .  S
C188        C249   1.480   1_455  S
C188        C189   1.410   1_456  A
C189        C542   1.480       .  S
C189        C478   1.403   1_565  A
C190        C329   1.402       .  A
C190        C477   1.403   1_545  A
C190        H191   1.085       .  S
O193       Cu201   2.005       .  S
O193        C203   1.276       .  A
O194       Cu201   2.007       .  S
O194        C204   1.276       .  A
O195       Cu201   2.003       .  S
O195        C205   1.276       .  A
O196       Cu201   2.004       .  S
O196        C206   1.276       .  A
O197       Cu202   2.024       .  S
O197        C494   1.280   1_455  A
O198       Cu202   2.019       .  S
O198        C493   1.278       .  A
O199       Cu202   1.998       .  S
O199        C492   1.275       .  A
O200       Cu202   2.004       .  S
O200        C491   1.276       .  A
Cu201      Cu490   2.378       .  S
Cu202      Cu489   2.378   1_455  S
C203        O488   1.280       .  A
C203        C253   1.475       .  S
C204        O487   1.277       .  A
C204        C243   1.433       .  S
C205        O486   1.276       .  A
C205        C242   1.432       .  S
C206        O485   1.280       .  A
C206        C257   1.475       .  S
C207        C208   1.531       .  S
C207        C213   1.529   1_565  S
C207        C499   1.534   1_455  S
C207        C241   1.465       .  S
C208        H215   1.087       .  S
C209        C210   1.542   1_455  S
C209        C272   1.445       .  S
C210        C502   1.538   1_655  S
C210        C500   1.541       .  S
C210        H216   1.111       .  S
C211        C495   1.532       .  S
C211        H217   1.087       .  S
C212        C498   1.543       .  S
C212        C270   1.445       .  S
C213        H218   1.087       .  S
C213        C358   1.361       .  D
C214        C498   1.540       .  S
C214        C357   1.359       .  D
C214        C244   1.439       .  S
O219       Cu227   2.018       .  S
O219        C517   1.279       .  A
O220       Cu227   2.006       .  S
O220        C518   1.276       .  A
O221       Cu227   2.010       .  S
O221        C519   1.276       .  A
O222       Cu227   2.021       .  S
O222        C520   1.280       .  A
O223       Cu228   2.002       .  S
O223        C232   1.276       .  A
O224       Cu228   2.002       .  S
O224        C231   1.276       .  A
O225       Cu228   2.007       .  S
O225        C230   1.276       .  A
O226       Cu228   2.019       .  S
O226        C229   1.278       .  A
Cu227      Cu516   2.378       .  S
Cu228      Cu515   2.377   1_455  S
C229        O507   1.278   1_455  A
C229        C245   1.479       .  S
C230        O508   1.276   1_455  A
C230        C284   1.432       .  S
C231        O509   1.276   1_455  A
C231        C281   1.430   1_455  S
C232        O510   1.279   1_455  A
C232        C250   1.473       .  S
C233        C277   1.481       .  S
C233        C234   1.412       .  A
C233        C526   1.403       .  A
C234        C261   1.481       .  S
C234        C523   1.403       .  A
C235        C522   1.406       .  A
C235        C236   1.400   1_655  A
C235        H240   1.085       .  S
C236        C265   1.482       .  S
C236        C237   1.410       .  A
C237        C273   1.481       .  S
C237        C238   1.407       .  A
C238        C521   1.402   1_455  A
C238        H239   1.084       .  S
C241        C530   1.205       .  T
C242        C529   1.204       .  T
C243        C244   1.205       .  T
C245        H535   1.087       .  S
C245        C246   1.346   1_455  D
C246        H248   1.087       .  S
H247        C533   1.087       .  S
C249        H539   1.087       .  S
C249        C250   1.340   1_655  D
C250        H252   1.087       .  S
H251        C537   1.087       .  S
C253        H255   1.087       .  S
C253        C254   1.343       .  D
C254        H544   1.087       .  S
C254        C477   1.485       .  S
H256        C542   1.087       .  S
C257        H259   1.087       .  S
C257        C258   1.344       .  D
C258        H548   1.087       .  S
C258        C473   1.486       .  S
H260        C546   1.087       .  S
C261        H263   1.086       .  S
C261        C262   1.340       .  D
C262        H264   1.087       .  S
C265        H267   1.087       .  S
C265        C266   1.342       .  D
C266        H268   1.087       .  S
C269        C270   1.208       .  T
C271        C272   1.208       .  T
C273        H275   1.087       .  S
C273        C274   1.340       .  D
C274        H276   1.087       .  S
C277        H279   1.087       .  S
C277        C278   1.341       .  D
C278        H280   1.087       .  S
C281        C282   1.203       .  T
C283        C433   1.464   1_455  S
C283        C284   1.204       .  T
C285        C286   1.206       .  T
C287        C288   1.207       .  T
C289        C290   1.531   1_455  S
C289        C295   1.527   1_455  S
C290        H297   1.087       .  S
C290        C435   1.363       .  D
C291        C292   1.541   1_565  S
C291        C434   1.365       .  D
C291        C431   1.442   1_565  S
C292        H298   1.111       .  S
C293        H299   1.086       .  S
C293        C438   1.366       .  D
C294        C437   1.365   1_545  D
C294        C429   1.445       .  S
C295        H300   1.087       .  S
C296        C426   1.437       .  S
O301       Cu309   2.035       .  S
O301        C311   1.281       .  A
O302       Cu309   2.030       .  S
O302        C312   1.279       .  A
O303       Cu309   2.005       .  S
O303        C313   1.275       .  A
O304       Cu309   2.005       .  S
O304        C314   1.276       .  A
O305       Cu454   2.004   1_545  S
O305        C314   1.279       .  A
O306       Cu310   2.022       .  S
O306        C457   1.279       .  A
O307       Cu310   1.996       .  S
O307        C456   1.274       .  A
O308       Cu454   1.993   1_545  S
O308        C311   1.275       .  A
Cu309      Cu454   2.377   1_545  S
Cu310       O449   2.014       .  S
Cu310       O452   1.991       .  S
Cu310      Cu453   2.377       .  S
C311        C422   1.475       .  S
C312        O451   1.275   1_545  A
C312        C430   1.439       .  S
C313        O450   1.277   1_545  A
C313        C432   1.435       .  S
C314        C418   1.470       .  S
O315       Cu323   2.010       .  S
O315        C325   1.276       .  A
O316       Cu323   2.003       .  S
O316        C326   1.276       .  A
O317       Cu323   2.023       .  S
O317        C327   1.280       .  A
O318       Cu323   2.033       .  S
O318        C328   1.280       .  A
O319       Cu324   1.993       .  S
O319        C472   1.274       .  A
O320       Cu468   1.995       .  S
O320        C327   1.275   1_565  A
O321       Cu468   2.022   1_545  S
O321        C326   1.280       .  A
O322       Cu324   2.015       .  S
O322        C469   1.278       .  A
Cu323      Cu468   2.377   1_545  S
Cu324       O464   1.995       .  S
Cu324       O465   2.019       .  S
Cu324      Cu467   2.378       .  S
C325        O466   1.278   1_545  A
C325        C413   1.439       .  S
C326        C410   1.474       .  S
C327        C406   1.471       .  S
C328        O463   1.274   1_545  A
C328        C415   1.437       .  S
C329        C330   1.413   1_554  A
C330        C390   1.484       .  S
C330        C475   1.406       .  A
C331        C474   1.404       .  A
C331        C332   1.403       .  A
C331        H336   1.085       .  S
C332        C393   1.486       .  S
C332        C333   1.413   1_556  A
C334        H335   1.085       .  S
O337       Cu345   2.018       .  S
O337        C347   1.278       .  A
O338       Cu345   2.004       .  S
O338        C348   1.276       .  A
O339       Cu345   2.001       .  S
O339        C349   1.275   1_655  A
O340       Cu345   2.002       .  S
O340        C350   1.276       .  A
O341       Cu346   2.021       .  S
O342       Cu346   2.009       .  S
O343       Cu346   2.011       .  S
O344       Cu346   2.021       .  S
C347        C397   1.479       .  S
C348        C387   1.431       .  S
C349        C386   1.431       .  S
C350        C401   1.474       .  S
C351        C352   1.532       .  S
C351        C357   1.528       .  S
C351        C385   1.463       .  S
C352        H359   1.087       .  S
C352        C497   1.366       .  D
C353        C354   1.540       .  S
C353        C496   1.367   1_545  D
C353        C416   1.444       .  S
C354        H360   1.111       .  S
C355        H361   1.087       .  S
C355        C500   1.364       .  D
C356        C499   1.365   1_545  D
C356        C414   1.445       .  S
C357        H362   1.087       .  S
C358        C388   1.437   1_455  S
O363       Cu371   2.008       .  S
O364       Cu371   2.001       .  S
O365       Cu371   2.020       .  S
O366       Cu371   2.022       .  S
O367       Cu372   2.002       .  S
O367        C376   1.276       .  A
O368       Cu372   2.001       .  S
O368        C375   1.275       .  A
O369       Cu372   2.005       .  S
O369        C374   1.275       .  A
O370       Cu372   2.004       .  S
O370        C373   1.278       .  A
C373        C389   1.477       .  S
C374        C428   1.431       .  S
C375        C425   1.431       .  S
C376        C394   1.474       .  S
C377        C421   1.486       .  S
C377        C378   1.413       .  A
C378        C405   1.482       .  S
C379        C380   1.397       .  A
C379        H384   1.085       .  S
C380        C409   1.482       .  S
C380        C381   1.410       .  A
C381        C417   1.479       .  S
C381        C382   1.408       .  A
C382        H383   1.084       .  S
C387        C388   1.203       .  T
C389        C390   1.343       .  D
C390        H392   1.087       .  S
C393        C394   1.345       .  D
C394        H396   1.087       .  S
C397        H399   1.087       .  S
C397        C398   1.346   1_655  D
C401        H403   1.087       .  S
C401        C402   1.340   1_655  D
C405        H407   1.086       .  S
C405        C406   1.341       .  D
C406        H408   1.087   1_545  S
C409        H411   1.087   1_545  S
C409        C410   1.342       .  D
C410        H412   1.087       .  S
C413        C414   1.208       .  T
C415        C416   1.207       .  T
C417        H419   1.087       .  S
C417        C418   1.340       .  D
C418        H420   1.087       .  S
C421        H423   1.087       .  S
C421        C422   1.343       .  D
C422        H424   1.087       .  S
C425        C426   1.203       .  T
C427        C428   1.204       .  T
C429        C430   1.208       .  T
C431        C432   1.206       .  T
C433        C434   1.533       .  S
C433        C439   1.530       .  S
C434        H441   1.087       .  S
C435        C436   1.543       .  S
C435        C575   1.443       .  S
C436        H442   1.111       .  S
C437        H443   1.087       .  S
C438        C573   1.445       .  S
C439        H444   1.087       .  S
C440        C570   1.437       .  S
O445       Cu453   2.035       .  S
O445        C455   1.282       .  A
O446       Cu453   2.032       .  S
O446        C456   1.280       .  A
O447       Cu453   2.002       .  S
O447        C457   1.275       .  A
O448       Cu453   2.001       .  S
O448        C458   1.275       .  A
O449        C458   1.280       .  A
O450       Cu454   2.016       .  S
O451       Cu454   1.999       .  S
O452        C455   1.274       .  A
C455        C566   1.474       .  S
C456        C574   1.438       .  S
C457        C576   1.437       .  S
C458        C562   1.472       .  S
O459       Cu467   2.005       .  S
O459        C469   1.275       .  A
O460       Cu467   1.994       .  S
O460        C470   1.275       .  A
O461       Cu467   2.022       .  S
O461        C471   1.280       .  A
O462       Cu467   2.034       .  S
O462        C472   1.280       .  A
O463       Cu468   1.993       .  S
O464        C471   1.275       .  A
O465        C470   1.280       .  A
O466       Cu468   2.018       .  S
C469        C557   1.436       .  S
C470        C554   1.469       .  S
C471        C550   1.470       .  S
C472        C559   1.438       .  S
C473        C474   1.417   1_554  A
C474        C534   1.484       .  S
C475        C476   1.405   1_545  A
C475        H480   1.084       .  S
C476        C537   1.484       .  S
C476        C477   1.417   1_556  A
C478        H479   1.084       .  S
O481       Cu489   2.007       .  S
O481        C491   1.278   1_655  A
O482       Cu489   2.009       .  S
O482        C492   1.276   1_655  A
O483       Cu489   1.995       .  S
O483        C493   1.274   1_655  A
O484       Cu489   2.009       .  S
O484        C494   1.277       .  A
O485       Cu490   2.023       .  S
O486       Cu490   2.012       .  S
O487       Cu490   2.009       .  S
O488       Cu490   2.021       .  S
C491        C541   1.469       .  S
C492        C531   1.430   1_455  S
C493        C530   1.432       .  S
C494        C545   1.478       .  S
C495        C496   1.534       .  S
C495        C501   1.528       .  S
C495        C529   1.465       .  S
C496        H503   1.087       .  S
C497        C498   1.541       .  S
C497        C560   1.444       .  S
C498        H504   1.111       .  S
C499        H505   1.087       .  S
C500        C558   1.442       .  S
C501        H506   1.087       .  S
C502        C532   1.435   1_455  S
O507       Cu515   2.013       .  S
O508       Cu515   2.006       .  S
O509       Cu515   2.006       .  S
O510       Cu515   2.013       .  S
O511       Cu516   2.001       .  S
O511        C520   1.276       .  A
O512       Cu516   2.002       .  S
O512        C519   1.276       .  A
O513       Cu516   2.005       .  S
O513        C518   1.276       .  A
O514       Cu516   2.005       .  S
O514        C517   1.276       .  A
C517        C533   1.474       .  S
C518        C572   1.431       .  S
C519        C569   1.432       .  S
C520        C538   1.473       .  S
C521        C565   1.484       .  S
C521        C522   1.413       .  A
C522        C549   1.482       .  S
C523        C524   1.398       .  A
C523        H528   1.085       .  S
C524        C553   1.478       .  S
C524        C525   1.410       .  A
C525        C561   1.482       .  S
C525        C526   1.406       .  A
C526        H527   1.084       .  S
C531        C532   1.202       .  T
C533        C534   1.343       .  D
C534        H536   1.087       .  S
C537        C538   1.343       .  D
C538        H540   1.087       .  S
C541        H543   1.087       .  S
C541        C542   1.343   1_455  D
C545        H547   1.087       .  S
C545        C546   1.345   1_655  D
C549        H551   1.086       .  S
C549        C550   1.340       .  D
C550        H552   1.087       .  S
C553        H555   1.087       .  S
C553        C554   1.340       .  D
C554        H556   1.088       .  S
C557        C558   1.206       .  T
C559        C560   1.208       .  T
C561        H563   1.087       .  S
C561        C562   1.340       .  D
C562        H564   1.087       .  S
C565        H567   1.087       .  S
C565        C566   1.342       .  D
C566        H568   1.087       .  S
C569        C570   1.204       .  T
C571        C572   1.204       .  T
C573        C574   1.208       .  T
C575        C576   1.207       .  T
