geometry optimzed in LAMMPS
_audit_creation_date              2020-11-30 
_audit_creation_method            'lammps2cif' 
_symmetry_space_group_name_H-M    'P1' 
_symmetry_Int_Tables_number       1 
_symmetry_cell_setting            triclinic 
loop_ 
_symmetry_equiv_pos_as_xyz 
  x,y,z 
_cell_length_a                    22.4719933 
_cell_length_b                    34.58275183158095 
_cell_length_c                    38.13787132653264 
_cell_angle_alpha                 90.80274436653481 
_cell_angle_beta                  89.58350840818507 
_cell_angle_gamma                 118.305027694641 
loop_ 
_atom_site_label 
_atom_site_type_symbol 
_atom_site_fract_x 
_atom_site_fract_y 
_atom_site_fract_z 
_atom_site_charge 
C1          C  0.33042608  0.12319943  0.27924436     0.46500
H2          H  0.33084357  0.12486805  0.30806436    -0.02500
C3          C  0.32910622  0.11911273  0.21242928     0.46600
H4          H  0.32780072  0.11694046  0.18363126    -0.02500
C5          C  0.29330535  0.07319451  0.26483344    -0.16200
C6          C  0.29151421  0.14772231  0.26269784    -0.16000
C7          C  0.40611344  0.14572019  0.26435262    -0.16300
C8          C  0.29177854  0.07114948  0.22969178    -0.16300
C9          C  0.29086883  0.14582264  0.22621836    -0.15900
C10         C  0.40578598  0.14279792  0.22716225    -0.16200
C11         C  0.15840465  0.23400111  0.20937017     0.46500
H12         H  0.15542322  0.23208666  0.18062566    -0.02500
C13         C  0.16045741  0.23465472  0.27580583     0.46600
H14         H  0.16034560  0.23410872  0.30399648    -0.02500
C15         C  0.19421057  0.28390915  0.22468677    -0.16200
C16         C  0.08480335  0.20915179  0.22626346    -0.16000
C17         C  0.19746639  0.20899554  0.22446170    -0.16300
C18         C  0.19448748  0.28366539  0.26100563    -0.16300
C19         C  0.08593646  0.20941007  0.26106706    -0.15900
C20         C  0.19870958  0.20972062  0.25969478    -0.16200
N21         N  0.25464855  0.16175983  0.20158783    -0.02400
C22         C  0.24806524  0.14869227  0.16725475     0.00200
C23         C  0.18562520  0.13943474  0.15421062    -0.22700
C24         C  0.15462515  0.15190609  0.17870235    -0.22900
C25         C  0.19963331  0.17007084  0.20589073     0.00100
H26         H  0.17195090  0.13594959  0.12679767     0.13800
H27         H  0.11063194  0.15596015  0.17362694     0.13900
N28         N  0.25521112  0.16547257  0.28539984    -0.02400
C29         C  0.24125842  0.15010828  0.31876305     0.00200
C30         C  0.17384118  0.13488800  0.32661965    -0.22700
C31         C  0.14851042  0.14926038  0.30107113    -0.22900
C32         C  0.19938124  0.17082803  0.27746733     0.00100
H33         H  0.15147875  0.12695124  0.35242791     0.13800
H34         H  0.10441572  0.15354375  0.30428104     0.13900
N35         N  0.22111841  0.32291788  0.28475624    -0.02400
C36         C  0.22140125  0.31518109  0.31993960     0.00200
C37         C  0.29829990  0.01469114  0.33850050    -0.22700
C38         C  0.32912136  0.04446638  0.31328819    -0.22900
C39         C  0.28735211  0.03336806  0.28506399     0.00100
H40         H  0.31192721  0.02022848  0.36599980     0.13800
H41         H  0.36835715  0.07654642  0.31843363     0.13900
N42         N  0.22152585  0.32362204  0.20133103    -0.03300
C43         C  0.21774870  0.31572652  0.16583658     0.00200
C44         C  0.27993364  0.00425231  0.15811736    -0.22700
C45         C  0.31704567  0.03554365  0.18132370    -0.22900
C46         C  0.28025397  0.02846663  0.21117866     0.00100
H47         H  0.28719375  0.00853395  0.13016192     0.13800
H48         H  0.35619820  0.06648622  0.17343429     0.13900
N49         N  0.46711636  0.15842649  0.20291360    -0.02400
C50         C  0.45566839  0.16311943  0.16802125     0.00200
C51         C  0.98519056  0.20930171  0.16029607    -0.22700
C52         C  0.02147245  0.23178274  0.18822539    -0.22900
C53         C  0.01888958  0.20081746  0.21001089     0.00100
H54         H  0.99851565  0.22447885  0.13520464     0.13800
H55         H  0.05918314  0.26543266  0.18901388     0.13900
N56         N  0.46800164  0.16785768  0.28789971    -0.02400
C57         C  0.46464808  0.17464770  0.32378703     0.00200
C58         C  0.99789799  0.21326922  0.33184074    -0.22700
C59         C  0.02899236  0.23421459  0.30254848    -0.22900
C60         C  0.02193155  0.20206055  0.28007300     0.00100
H61         H  0.01695856  0.23042153  0.35594197     0.13800
H62         H  0.06704106  0.26787698  0.30073769     0.13900
Fe63       Fe  0.38464792  0.31826601  0.00054139     1.65800
Fe64       Fe  0.45412703  0.25184483  0.49629503     1.73200
Fe65       Fe  0.05753492  0.04016646  0.49649340     1.54400
O66         O  0.02263172  0.06235302  0.45400361    -0.80600
O67         O  0.02419267  0.26836305  0.03537838    -0.78900
O68         O  0.41166102  0.03382061  0.45764731    -0.83100
O69         O  0.40359723  0.02713554  0.03491106    -0.78000
O70         O  0.10152235  0.01759331  0.45976831    -0.79800
O71         O  0.41187441  0.23270326  0.02927131    -0.82500
C72         C  0.46023449  0.05738158  0.04565231     0.98300
C73         C  0.46528344  0.05983485  0.44081323     1.05700
O74         O  0.44939628  0.30713971  0.49934985    -1.11500
O75         O  0.38106845  0.22636343  0.45940236    -0.73900
O76         O  0.31559927  0.25809334  0.46441583    -0.77400
O77         O  0.02945445  0.06837841  0.03520126    -0.78100
C78         C  0.33170451  0.23134411  0.44969873     0.97200
O79         O  0.34935051  0.26644862  0.03633025    -0.76100
O80         O  0.04323543  0.28634240  0.45694227    -0.81200
C81         C  0.06661766  0.30531769  0.04821688     0.99800
C82         C  0.08355653  0.32167030  0.44219859     1.05700
O83         O  0.10630991  0.02423018  0.03631878    -0.76900
C84         C  0.36530968  0.23682255  0.04421514     1.04000
C85         C  0.47674624  0.10844920  0.34698534    -0.00800
C86         C  0.46349170  0.14407171  0.35335041     0.08900
C87         C  0.45244306  0.15146523  0.38941310    -0.00900
C88         C  0.45284391  0.12430110  0.41709036    -0.00900
C89         C  0.46152888  0.08733810  0.41024728     0.09000
C90         C  0.46831733  0.07871823  0.37425757    -0.01100
Br91       Br  0.43869281  0.02108611  0.35844313     0.00300
Br92       Br  0.49527981  0.09411874  0.29974215     0.00300
Br93       Br  0.43658514  0.13598365  0.46488155     0.00300
Br94       Br  0.43657970  0.19869249  0.40319332     0.00300
C95         C  0.97988088  0.15240396  0.10297847    -0.00800
C96         C  0.46746489  0.13835775  0.13654815     0.08900
C97         C  0.46127435  0.09591991  0.14033691    -0.00900
C98         C  0.44718125  0.06828868  0.11046630    -0.00900
C99         C  0.46339328  0.08528133  0.07655968     0.09000
C100        C  0.00071678  0.13204626  0.07746903    -0.01100
Br101      Br  0.04007958  0.16074348  0.03394661     0.00300
Br102      Br  0.93074797  0.17674324  0.08144368     0.00300
Br103      Br  0.39986959  0.00721871  0.11556326     0.00300
Br104      Br  0.47761590  0.07521207  0.18439756     0.00300
C105        C  0.13630948  0.99708295  0.14683433    -0.00800
C106        C  0.15652518  0.29695481  0.14412587     0.08900
C107        C  0.15890652  0.27346971  0.11381306    -0.00900
C108        C  0.13531842  0.27989180  0.08165728    -0.00900
C109        C  0.10246539  0.30549535  0.08022451     0.09000
C110        C  0.11973943  0.00717048  0.11382541    -0.01100
Br111      Br  0.08932529  0.05032524  0.11008327     0.00300
Br112      Br  0.12938483  0.02808718  0.18787819     0.00300
Br113      Br  0.16603190  0.26588819  0.03830645     0.00300
Br114      Br  0.21096344  0.24232888  0.11407470     0.00300
C115        C  0.13533649  0.33235057  0.34637383    -0.00800
C116        C  0.16315899  0.30334224  0.34415315     0.08900
C117        C  0.15501905  0.27609211  0.37320195    -0.00900
C118        C  0.13472699  0.28482044  0.40578336    -0.00900
C119        C  0.11422925  0.31734753  0.40901366     0.09000
C120        C  0.11179422  0.33966943  0.37878787    -0.01100
Br121      Br  0.08103017  0.38299235  0.38194123     0.00300
Br122      Br  0.13227699  0.36409181  0.30566285     0.00300
Br123      Br  0.14415182  0.91332864  0.44981439     0.00300
Br124      Br  0.22919957  0.91512851  0.37866170     0.00300
C125        C  0.30849132  0.21828948  0.35339982    -0.00800
C126        C  0.28626973  0.17294985  0.34873842     0.08900
C127        C  0.27793243  0.14743140  0.37851893    -0.00900
C128        C  0.28037986  0.16439458  0.41223515    -0.00900
C129        C  0.29904769  0.20893869  0.41686413     0.09000
C130        C  0.31066327  0.23519262  0.38733281    -0.01100
Br131      Br  0.32106759  0.29266207  0.39400817     0.00300
Br132      Br  0.33779606  0.25779198  0.31419444     0.00300
Br133      Br  0.26087183  0.12681726  0.45187120     0.00300
Br134      Br  0.27099263  0.09087094  0.37318512     0.00300
C135        C  0.29707375  0.14486454  0.11004688    -0.00800
C136        C  0.30291894  0.16878230  0.14118065     0.08900
C137        C  0.34164525  0.21480170  0.14031602    -0.00900
C138        C  0.36635465  0.23485684  0.10797587    -0.00900
C139        C  0.33980808  0.21181918  0.07663793     0.09000
C140        C  0.31055270  0.16580068  0.07751753    -0.01100
Br141      Br  0.29269160  0.13128181  0.03543115     0.00300
Br142      Br  0.27333159  0.08438648  0.11242677     0.00300
Br143      Br  0.45466839  0.28379106  0.10538055     0.00300
Br144      Br  0.36687526  0.25027028  0.18258406     0.00300
C145        C  0.32642417  0.12088014  0.78101218     0.46500
H146        H  0.32656005  0.12141783  0.80986460    -0.02500
C147        C  0.32501016  0.11880350  0.71410706     0.46600
H148        H  0.32407154  0.11742600  0.68528362    -0.02500
C149        C  0.29062977  0.07138236  0.76563213    -0.16200
C150        C  0.28604573  0.14508487  0.76548446    -0.16000
C151        C  0.40221176  0.14429464  0.76597451    -0.16300
C152        C  0.28976373  0.07035274  0.73045533    -0.16300
C153        C  0.28472245  0.14367728  0.72914642    -0.15900
C154        C  0.40155733  0.14320556  0.72860686    -0.16200
C155        C  0.15506401  0.23265552  0.71384954     0.46500
H156        H  0.15318605  0.23122357  0.68502105    -0.02500
C157        C  0.15490779  0.23294621  0.78050435     0.46600
H158        H  0.15258655  0.23165613  0.80916515    -0.02500
C159        C  0.19100078  0.28216616  0.72909348    -0.16200
C160        C  0.08116095  0.20875899  0.73000544    -0.16000
C161        C  0.19230800  0.20682163  0.72953055    -0.16300
C162        C  0.19093041  0.28213421  0.76547249    -0.16300
C163        C  0.08108906  0.20875702  0.76479287    -0.15900
C164        C  0.19233491  0.20722002  0.76477986    -0.16200
N165        N  0.24446411  0.15746305  0.70571833    -0.02400
C166        C  0.23431065  0.14320265  0.67179635     0.00200
C167        C  0.17124039  0.13482579  0.66018999    -0.22700
C168        C  0.14376020  0.14882874  0.68532375    -0.22900
C169        C  0.19108011  0.16687125  0.71144420     0.00100
H170        H  0.15517141  0.13145087  0.63321093     0.13800
H171        H  0.10126287  0.15461242  0.68087000     0.13900
N172        N  0.24969153  0.16233100  0.78885977    -0.02400
C173        C  0.24296808  0.15110856  0.82315660     0.00200
C174        C  0.17916968  0.14030910  0.83543217    -0.22700
C175        C  0.14863505  0.15161295  0.81041759    -0.22900
C176        C  0.19391291  0.16890371  0.78333705     0.00100
H177        H  0.16357751  0.13686644  0.86255925     0.13800
H178        H  0.10538474  0.15653949  0.81544535     0.13900
N179        N  0.21878023  0.32147629  0.78926975    -0.02400
C180        C  0.21981478  0.31245905  0.82408131     0.00200
C181        C  0.29287154  0.01066535  0.83872289    -0.22700
C182        C  0.32359429  0.04185874  0.81465449    -0.22900
C183        C  0.28423590  0.03124097  0.78547883     0.00100
H184        H  0.30547078  0.01521579  0.86638211     0.13800
H185        H  0.36073168  0.07397659  0.82116802     0.13900
N186        N  0.21812080  0.32178885  0.70589516    -0.03300
C187        C  0.21871337  0.31391683  0.67048788     0.00200
C188        C  0.28688439  0.00748599  0.65766733    -0.22700
C189        C  0.32098303  0.03828588  0.68186863    -0.22900
C190        C  0.28201941  0.02904978  0.71114766     0.00100
H191        H  0.29632176  0.01265918  0.62987916     0.13800
H192        H  0.35960976  0.06999444  0.67507614     0.13900
N193        N  0.46309942  0.16090792  0.70440593    -0.02400
C194        C  0.45677439  0.16614247  0.66879931     0.00200
C195        C  0.98828982  0.21140069  0.66202830    -0.22700
C196        C  0.02315050  0.23329834  0.69042790    -0.22900
C197        C  0.01685183  0.20168670  0.71278068     0.00100
H198        H  0.00486720  0.22714934  0.63739916     0.13800
H199        H  0.06307639  0.26664928  0.69081216     0.13900
N200        N  0.46463777  0.16425262  0.78951174    -0.02400
C201        C  0.46256953  0.16878872  0.82591391     0.00200
C202        C  0.99283282  0.20868382  0.83594029    -0.22700
C203        C  0.02419188  0.23167455  0.80748015    -0.22900
C204        C  0.01658480  0.20096731  0.78318885     0.00100
H205        H  0.01168814  0.22374574  0.86095298     0.13800
H206        H  0.06308662  0.26536119  0.80737330     0.13900
Fe207      Fe  0.36062239  0.30631963  0.50248842     1.65800
Fe208      Fe  0.48331673  0.26756031  0.99380937     1.73200
Fe209      Fe  0.05939498  0.04036502  0.99621670     1.54400
O210        O  0.01891303  0.06107650  0.95495301    -0.80600
O211        O  0.04488822  0.28609615  0.53482517    -0.78900
O212        O  0.39989855  0.02054363  0.95337670    -0.83100
O213        O  0.41415569  0.02966898  0.53946776    -0.78000
O214        O  0.10340054  0.02074094  0.95831544    -0.79800
O215        O  0.38289769  0.22304701  0.53362057    -0.82500
C216        C  0.47042853  0.06192554  0.54869672     0.98300
C217        C  0.45457108  0.04698967  0.93787454     1.05700
O218        O  0.47509708  0.32185289  0.99789454    -1.11500
O219        O  0.41542904  0.24387129  0.95494526    -0.73900
O220        O  0.34953139  0.27566211  0.95669029    -0.77400
O221        O  0.02476979  0.06863499  0.53481817    -0.78100
C222        C  0.36866346  0.24968861  0.94267796     0.97200
O223        O  0.32604722  0.26062444  0.54183988    -0.76100
O224        O  0.01899957  0.26553674  0.95725313    -0.81200
C225        C  0.09003788  0.32221871  0.54672740     0.99800
C226        C  0.06434773  0.30161754  0.94585634     1.05700
O227        O  0.10074263  0.02367735  0.53775954    -0.76900
C228        C  0.33941551  0.23001547  0.54943400     1.04000
C229        C  0.47053143  0.09971026  0.84540077    -0.00800
C230        C  0.46005640  0.13607870  0.85399422     0.08900
C231        C  0.44907611  0.14110329  0.89074853    -0.00900
C232        C  0.44015078  0.10930527  0.91596121    -0.00900
C233        C  0.45135544  0.07410369  0.90748765     0.09000
C234        C  0.46187271  0.06821863  0.87130642    -0.01100
Br235      Br  0.43972020  0.01222321  0.85304868     0.00300
Br236      Br  0.48560979  0.08739331  0.79687793     0.00300
Br237      Br  0.40714908  0.11199402  0.96282699     0.00300
Br238      Br  0.45616159  0.19268485  0.91212987     0.00300
C239        C  0.97600646  0.15212348  0.60378365    -0.00800
C240        C  0.46711406  0.13902896  0.63922689     0.08900
C241        C  0.46734191  0.09861865  0.64436080    -0.00900
C242        C  0.45684938  0.07095486  0.61465934    -0.00900
C243        C  0.47484529  0.08853398  0.58075520     0.09000
C244        C  0.99475338  0.13049203  0.57835722    -0.01100
Br245      Br  0.04237458  0.16059377  0.53674467     0.00300
Br246      Br  0.94358688  0.18716204  0.58204688     0.00300
Br247      Br  0.41036935  0.01001892  0.62002567     0.00300
Br248      Br  0.48139226  0.07968336  0.68971877     0.00300
C249        C  0.14141068  0.99696977  0.64465575    -0.00800
C250        C  0.16240205  0.30222702  0.64537798     0.08900
C251        C  0.16394857  0.27910917  0.61472381    -0.00900
C252        C  0.14779134  0.28966524  0.58192905    -0.00900
C253        C  0.12335089  0.32012777  0.57949838     0.09000
C254        C  0.12242116  0.00604274  0.61194902    -0.01100
Br255      Br  0.08920055  0.04800211  0.60953772     0.00300
Br256      Br  0.13301397  0.02696643  0.68605489     0.00300
Br257      Br  0.17072630  0.26869356  0.53961477     0.00300
Br258      Br  0.19998164  0.23853311  0.61674720     0.00300
C259        C  0.13828538  0.32970231  0.85488103    -0.00800
C260        C  0.16315894  0.29961967  0.84921721     0.08900
C261        C  0.15597569  0.27003682  0.87630958    -0.00900
C262        C  0.12052081  0.26870388  0.90719887    -0.00900
C263        C  0.10208991  0.30187200  0.91382714     0.09000
C264        C  0.11746625  0.33477402  0.88856967    -0.01100
Br265      Br  0.12426440  0.39108921  0.90134947     0.00300
Br266      Br  0.13925479  0.36742584  0.81782076     0.00300
Br267      Br  0.16325962  0.92146845  0.95158477     0.00300
Br268      Br  0.21657640  0.90659902  0.87505707     0.00300
C269        C  0.34229617  0.21852090  0.84662546    -0.00800
C270        C  0.29811051  0.17314514  0.84875415     0.08900
C271        C  0.28830128  0.15357410  0.88162104    -0.00900
C272        C  0.29765151  0.17915755  0.91183612    -0.00900
C273        C  0.33847069  0.22493083  0.91011799     0.09000
C274        C  0.36999962  0.24184038  0.87763776    -0.01100
Br275      Br  0.46353146  0.28206316  0.87578824     0.00300
Br276      Br  0.36821578  0.25011429  0.80305671     0.00300
Br277      Br  0.25783509  0.15088177  0.95478143     0.00300
Br278      Br  0.27522426  0.09500234  0.88436993     0.00300
C279        C  0.27396358  0.13851550  0.61297169    -0.00800
C280        C  0.28780155  0.16138117  0.64509676     0.08900
C281        C  0.33040865  0.20705477  0.64475550    -0.00900
C282        C  0.34958555  0.22769579  0.61248339    -0.00900
C283        C  0.31420132  0.20635065  0.58195601     0.09000
C284        C  0.27752488  0.16038428  0.58193453    -0.01100
Br285      Br  0.24075600  0.12718217  0.53973320     0.00300
Br286      Br  0.27261446  0.08333837  0.61092136     0.00300
Br287      Br  0.44034709  0.27249825  0.60739316     0.00300
Br288      Br  0.36354659  0.24253292  0.68671303     0.00300
C289        C  0.32449546  0.45200869  0.28190151     0.46500
H290        H  0.32126169  0.44922444  0.31073624    -0.02500
C291        C  0.32984154  0.45671170  0.21520627     0.46600
H292        H  0.33331285  0.46049333  0.18673268    -0.02500
C293        C  0.28950306  0.40402315  0.26316544    -0.16200
C294        C  0.28666349  0.47871720  0.26700321    -0.16000
C295        C  0.40206937  0.47605049  0.26903301    -0.16300
C296        C  0.29149518  0.40656084  0.22798920    -0.16300
C297        C  0.28877560  0.48022038  0.23059693    -0.15900
C298        C  0.40427587  0.47863862  0.23191545    -0.16200
C299        C  0.16117129  0.56934894  0.21424971     0.46500
H300        H  0.15918896  0.56718167  0.18550519    -0.02500
C301        C  0.16072242  0.57045601  0.28096566     0.46600
H302        H  0.15760149  0.56952960  0.30966138    -0.02500
C303        C  0.19895246  0.61900616  0.22916439    -0.16200
C304        C  0.08715161  0.54680449  0.23020776    -0.16000
C305        C  0.19703671  0.54305530  0.23034468    -0.16300
C306        C  0.19878348  0.61932780  0.26554617    -0.16300
C307        C  0.08720184  0.54735287  0.26505136    -0.15900
C308        C  0.19711294  0.54374104  0.26560687    -0.16200
N309        N  0.25114893  0.49561333  0.20671016    -0.02400
C310        C  0.24115922  0.48118874  0.17268677     0.00200
C311        C  0.17548397  0.46840199  0.16229544    -0.22700
C312        C  0.14812976  0.48318532  0.18714337    -0.22900
C313        C  0.19642013  0.50327274  0.21256848     0.00100
H314        H  0.15578490  0.46059342  0.13588709     0.13800
H315        H  0.10423601  0.48754428  0.18299927     0.13900
N316        N  0.24936734  0.49537570  0.29048195    -0.02400
C317        C  0.23753512  0.48123661  0.32417269     0.00200
C318        C  0.17334099  0.47214364  0.33475367    -0.22700
C319        C  0.14776217  0.48683202  0.30973400    -0.22900
C320        C  0.19617067  0.50464660  0.28425326     0.00100
H321        H  0.15478220  0.46757156  0.36136789     0.13800
H322        H  0.10553206  0.49306314  0.31392252     0.13900
N323        N  0.23053401  0.65868475  0.28906028    -0.02400
C324        C  0.23745959  0.64978553  0.32311400     0.00200
C325        C  0.28345809  0.34245392  0.33418114    -0.22700
C326        C  0.32092605  0.36989030  0.30870551    -0.22900
C327        C  0.28087641  0.36177829  0.28005580     0.00100
H328        H  0.29419228  0.35022458  0.36165321     0.13800
H329        H  0.36415076  0.40045054  0.31367084     0.13900
N330        N  0.22832652  0.65810951  0.20542475    -0.03300
C331        C  0.22764081  0.64954411  0.17020377     0.00200
C332        C  0.27010961  0.34792708  0.14824206    -0.22700
C333        C  0.30540429  0.37934400  0.17135257    -0.22900
C334        C  0.27622531  0.36684842  0.20374083     0.00100
H335        H  0.27564102  0.35186942  0.12004062     0.13800
H336        H  0.34267798  0.41076142  0.16294321     0.13900
N337        N  0.46757170  0.49804890  0.20954985    -0.02400
C338        C  0.46608561  0.50283184  0.17363843     0.00200
C339        C  0.00100416  0.54827774  0.15935518    -0.22700
C340        C  0.03202867  0.57071191  0.18851420    -0.22900
C341        C  0.02308260  0.53982723  0.21219173     0.00100
H342        H  0.02007846  0.56279642  0.13439368     0.13800
H343        H  0.07129566  0.60403973  0.18973987     0.13900
N344        N  0.46299800  0.49274557  0.29381546    -0.02400
C345        C  0.45636337  0.49413162  0.33028843     0.00200
C346        C  0.96747147  0.54685846  0.32624037    -0.22700
C347        C  0.01731941  0.56959738  0.30291417    -0.22900
C348        C  0.02211611  0.53785334  0.28334318     0.00100
H349        H  0.95090731  0.56187779  0.34606155     0.13800
H350        H  0.05044175  0.60463770  0.30266721     0.13900
Fe351      Fe  0.40062701  0.65030080  0.00156889     1.65800
Fe352      Fe  0.46502455  0.59119867  0.49777358     1.73200
Fe353      Fe  0.05655634  0.37893364  0.49571606     1.54400
O354        O  0.02229381  0.40851625  0.45860932    -0.80600
O355        O  0.04397076  0.61730561  0.03626725    -0.78900
O356        O  0.38734113  0.35047503  0.46109506    -0.83100
O357        O  0.41088713  0.36008298  0.04537394    -0.78000
O358        O  0.09511680  0.35917667  0.45379119    -0.79800
O359        O  0.41680110  0.56814651  0.03650369    -0.82500
C360        C  0.46745828  0.38898700  0.05787547     0.98300
C361        C  0.44120522  0.37571416  0.44444505     1.05700
O362        O  0.46507185  0.64792759  0.49535064    -1.11500
O363        O  0.38498767  0.55870425  0.46526209    -0.73900
O364        O  0.33448452  0.59980110  0.45869894    -0.77400
O365        O  0.00585886  0.38975654  0.03652936    -0.78100
C366        C  0.34371385  0.56759978  0.44995045     0.97200
O367        O  0.36838977  0.61067527  0.04478411    -0.76100
O368        O  0.07382300  0.61778541  0.46496298    -0.81200
C369        C  0.08864353  0.65278935  0.04948040     0.99800
C370        C  0.11389501  0.65400956  0.45146109     1.05700
O371        O  0.07649676  0.34175034  0.03612791    -0.76900
C372        C  0.37812200  0.57892130  0.05327971     1.04000
C373        C  0.46447426  0.42472465  0.35106148    -0.00800
C374        C  0.44546903  0.45825515  0.35727964     0.08900
C375        C  0.42188960  0.45960299  0.39216634    -0.00900
C376        C  0.40803337  0.42668289  0.41671154    -0.00900
C377        C  0.43580926  0.39869109  0.41238055     0.09000
C378        C  0.46076783  0.39586589  0.37855099    -0.01100
Br379      Br  0.47793910  0.34757858  0.36752106     0.00300
Br380      Br  0.49387268  0.41633772  0.30506464     0.00300
Br381      Br  0.35318086  0.42175228  0.45794505     0.00300
Br382      Br  0.42675199  0.50988813  0.41475669     0.00300
C383        C  0.96840886  0.48154617  0.10210158    -0.00800
C384        C  0.46943498  0.47173008  0.14576297     0.08900
C385        C  0.46066355  0.42927741  0.15280124    -0.00900
C386        C  0.44858074  0.39990072  0.12401928    -0.00900
C387        C  0.47139719  0.41601006  0.08982927     0.09000
C388        C  0.97650386  0.45531059  0.07608607    -0.01100
Br389      Br  0.00264225  0.47652129  0.02849970     0.00300
Br390      Br  0.94467001  0.52164310  0.08227405     0.00300
Br391      Br  0.39343358  0.33992259  0.13211877     0.00300
Br392      Br  0.45837893  0.40873157  0.19995161     0.00300
C393        C  0.12294690  0.32267630  0.14247815    -0.00800
C394        C  0.16928131  0.63636665  0.14666119     0.08900
C395        C  0.16624111  0.61059735  0.11698801    -0.00900
C396        C  0.14223887  0.61704834  0.08491492    -0.00900
C397        C  0.12062310  0.64912015  0.08210855     0.09000
C398        C  0.09931216  0.32860677  0.11026358    -0.01100
Br399      Br  0.07109863  0.37306994  0.10686727     0.00300
Br400      Br  0.11900447  0.35597097  0.18302277     0.00300
Br401      Br  0.14753981  0.58555793  0.04408765     0.00300
Br402      Br  0.20586913  0.57177506  0.11868242     0.00300
C403        C  0.15886055  0.66867770  0.35573485    -0.00800
C404        C  0.18528055  0.63931208  0.35059735     0.08900
C405        C  0.18685144  0.61433701  0.37918722    -0.00900
C406        C  0.16992413  0.62190594  0.41305583    -0.00900
C407        C  0.14793824  0.65335296  0.41850515     0.09000
C408        C  0.14522247  0.67794287  0.38993617    -0.01100
Br409      Br  0.13601215  0.72992343  0.39817335     0.00300
Br410      Br  0.14784154  0.70006972  0.31690757     0.00300
Br411      Br  0.13933302  0.25321243  0.44632921     0.00300
Br412      Br  0.15978906  0.22217681  0.36894859     0.00300
C413        C  0.33710203  0.54344101  0.35323794    -0.00800
C414        C  0.28935367  0.49865373  0.35210204     0.08900
C415        C  0.27048393  0.47642242  0.38393941    -0.00900
C416        C  0.27431997  0.49928708  0.41504511    -0.00900
C417        C  0.31766488  0.54467956  0.41636618     0.09000
C418        C  0.35618834  0.56441302  0.38611479    -0.01100
Br419      Br  0.44686812  0.60863278  0.39234479     0.00300
Br420      Br  0.37774716  0.57611717  0.31135913     0.00300
Br421      Br  0.22365691  0.46768516  0.45488609     0.00300
Br422      Br  0.25429762  0.41764213  0.38469345     0.00300
C423        C  0.27854097  0.48335683  0.11098654    -0.00800
C424        C  0.29298639  0.50246936  0.14488288     0.08900
C425        C  0.34452509  0.54645777  0.14822438    -0.00900
C426        C  0.37550968  0.56943976  0.11778148    -0.00900
C427        C  0.34573597  0.55382543  0.08474735     0.09000
C428        C  0.29686397  0.50985917  0.08138639    -0.01100
Br429      Br  0.25698575  0.48557970  0.03656575     0.00300
Br430      Br  0.24114837  0.42160195  0.10497357     0.00300
Br431      Br  0.46776932  0.61255352  0.12052613     0.00300
Br432      Br  0.37517464  0.57733248  0.19255625     0.00300
C433        C  0.32844957  0.45184594  0.78231822     0.46500
H434        H  0.32822547  0.45117890  0.81098661    -0.02500
C435        C  0.32707557  0.45265127  0.71551495     0.46600
H436        H  0.32609563  0.45279778  0.68659440    -0.02500
C437        C  0.29036101  0.40301403  0.76600882    -0.16200
C438        C  0.29005350  0.47783344  0.76853567    -0.16000
C439        C  0.40446809  0.47522270  0.76713767    -0.16300
C440        C  0.28966156  0.40335264  0.73084887    -0.16300
C441        C  0.28867989  0.47776364  0.73210428    -0.15900
C442        C  0.40371273  0.47632914  0.72986147    -0.16200
C443        C  0.15731975  0.56389847  0.71924278     0.46500
H444        H  0.15367307  0.56116953  0.69066115    -0.02500
C445        C  0.15964671  0.56612589  0.78579981     0.46600
H446        H  0.15860856  0.56607811  0.81423914    -0.02500
C447        C  0.19540471  0.61379320  0.73366692    -0.16200
C448        C  0.08423491  0.54094794  0.73611345    -0.16000
C449        C  0.19416483  0.53825408  0.73499793    -0.16300
C450        C  0.19665753  0.61492770  0.76981990    -0.16300
C451        C  0.08485688  0.54171309  0.77082523    -0.15900
C452        C  0.19579533  0.53954820  0.77018903    -0.16200
N453        N  0.25188981  0.49484531  0.70975366    -0.02400
C454        C  0.24261602  0.48279371  0.67536025     0.00200
C455        C  0.17646527  0.46878958  0.66546861    -0.22700
C456        C  0.14593808  0.47823066  0.69229315    -0.22900
C457        C  0.19472024  0.49889232  0.71740168     0.00100
H458        H  0.15796626  0.46428611  0.63892393     0.13800
H459        H  0.09960905  0.48018854  0.68968772     0.13900
N460        N  0.25665386  0.49592828  0.79334759    -0.02400
C461        C  0.25221632  0.48456154  0.82776738     0.00200
C462        C  0.18934554  0.47388007  0.84127192    -0.22700
C463        C  0.15729978  0.48559325  0.81732545    -0.22900
C464        C  0.20029664  0.50246886  0.78934073     0.00100
H465        H  0.17609545  0.47064822  0.86873691     0.13800
H466        H  0.11438011  0.49055737  0.82338160     0.13900
N467        N  0.22812894  0.65536393  0.79234324    -0.02400
C468        C  0.23200404  0.64841246  0.82714134     0.00200
C469        C  0.28069150  0.33890307  0.83878350    -0.22700
C470        C  0.31645614  0.36935752  0.81488609    -0.22900
C471        C  0.27836403  0.36115676  0.78539887     0.00100
H472        H  0.28907898  0.34337997  0.86669826     0.13800
H473        H  0.35624673  0.40057568  0.82197903     0.13900
N474        N  0.22361981  0.65279004  0.71000990    -0.03300
C475        C  0.22072546  0.64414012  0.67498023     0.00200
C476        C  0.27936769  0.34175248  0.65580411    -0.22700
C477        C  0.31513744  0.37131687  0.68048939    -0.22900
C478        C  0.27740564  0.36186393  0.71018489     0.00100
H479        H  0.28985661  0.34692642  0.62797657     0.13800
H480        H  0.35597452  0.40241523  0.67451344     0.13900
N481        N  0.46519636  0.49804370  0.70593091    -0.02400
C482        C  0.46153106  0.50497746  0.67025365     0.00200
C483        C  0.99620444  0.54680381  0.66910365    -0.22700
C484        C  0.02604366  0.56724986  0.69894510    -0.22900
C485        C  0.02019863  0.53441450  0.71954959     0.00100
H486        H  0.01620979  0.56478706  0.64598405     0.13800
H487        H  0.06470446  0.60087764  0.70121732     0.13900
N488        N  0.46582548  0.49299951  0.79155258    -0.02400
C489        C  0.45331399  0.49983350  0.82605468     0.00200
C490        C  0.99766796  0.53451792  0.84421331    -0.22700
C491        C  0.03019689  0.56028079  0.81732939    -0.22900
C492        C  0.01987535  0.53268728  0.79004547     0.00100
H493        H  0.01671724  0.54457439  0.87040729     0.13800
H494        H  0.07084587  0.59290643  0.81935461     0.13900
Fe495      Fe  0.37859227  0.64950135  0.49602473     1.65800
Fe496      Fe  0.49367856  0.59650471  0.00092940     1.73200
Fe497      Fe  0.03354933  0.35964409  0.99702602     1.54400
O498        O  0.99870022  0.38170571  0.95543115    -0.80600
O499        O  0.06007812  0.61729446  0.54136911    -0.78900
O500        O  0.40911478  0.36959873  0.96421925    -0.83100
O501        O  0.39103585  0.35358866  0.54307401    -0.78000
O502        O  0.07601641  0.33775671  0.95973863    -0.79800
O503        O  0.40506800  0.57308633  0.53989493    -0.82500
C504        C  0.44753524  0.38433315  0.55344271     0.98300
C505        C  0.46361234  0.40039432  0.95156046     1.05700
O506        O  0.48950127  0.65190206  0.00085018    -1.11500
O507        O  0.42967410  0.57169169  0.96051486    -0.73900
O508        O  0.35668648  0.59757506  0.96703553    -0.77400
O509        O  0.02594696  0.40246152  0.53798202    -0.78100
C510        C  0.37762846  0.57370684  0.95145939     0.97200
O511        O  0.34259822  0.60713949  0.53990451    -0.76100
O512        O  0.04588061  0.61981241  0.95932721    -0.81200
C513        C  0.10287349  0.65395089  0.55388071     0.99800
C514        C  0.09045731  0.65530469  0.94699049     1.05700
O515        O  0.10337349  0.35880982  0.53315198    -0.76900
C516        C  0.36176107  0.58144901  0.55385498     1.04000
C517        C  0.46027685  0.43455089  0.85615860    -0.00800
C518        C  0.46428008  0.47673640  0.85862301     0.08900
C519        C  0.47833719  0.49564680  0.89363873    -0.00900
C520        C  0.47841690  0.47127235  0.92355767    -0.00900
C521        C  0.46084557  0.42681056  0.92056633     0.09000
C522        C  0.44850524  0.40871680  0.88659895    -0.01100
Br523      Br  0.40511645  0.34712781  0.88241141     0.00300
Br524      Br  0.47862108  0.41222726  0.81276681     0.00300
Br525      Br  0.49836689  0.49776247  0.96966654     0.00300
Br526      Br  0.50874417  0.55632368  0.90326792     0.00300
C527        C  0.99613699  0.49068288  0.60908369    -0.00800
C528        C  0.46031491  0.47431920  0.63990798     0.08900
C529        C  0.46442275  0.43549331  0.64638478    -0.00900
C530        C  0.44956793  0.40400185  0.61919996    -0.00900
C531        C  0.45045729  0.41424935  0.58339516     0.09000
C532        C  0.01012982  0.46673031  0.58355318    -0.01100
Br533      Br  0.06957879  0.49599201  0.54483349     0.00300
Br534      Br  0.98266519  0.53402456  0.58639043     0.00300
Br535      Br  0.41327246  0.34560128  0.63334911     0.00300
Br536      Br  0.48463232  0.42131970  0.69252839     0.00300
C537        C  0.13468458  0.33124791  0.64316816    -0.00800
C538        C  0.16098080  0.62979013  0.65284106     0.08900
C539        C  0.16209516  0.60601738  0.62258391    -0.00900
C540        C  0.15502093  0.62040489  0.58969631    -0.00900
C541        C  0.13273715  0.65171724  0.58694567     0.09000
C542        C  0.11735169  0.34107851  0.61025674    -0.01100
Br543      Br  0.08713032  0.38446752  0.60729639     0.00300
Br544      Br  0.12534748  0.36052113  0.68472278     0.00300
Br545      Br  0.18764776  0.60390914  0.54823730     0.00300
Br546      Br  0.19376270  0.56328446  0.62482081     0.00300
C547        C  0.14605065  0.66588954  0.85304069    -0.00800
C548        C  0.17617051  0.63815362  0.85206463     0.08900
C549        C  0.16964156  0.61200443  0.88139595    -0.00900
C550        C  0.14432781  0.61896375  0.91294451    -0.00900
C551        C  0.12437746  0.65175775  0.91533386     0.09000
C552        C  0.12376259  0.67443391  0.88515285    -0.01100
Br553      Br  0.09404238  0.71811220  0.88773653     0.00300
Br554      Br  0.13495033  0.69255299  0.81106493     0.00300
Br555      Br  0.10738062  0.22551702  0.94229592     0.00300
Br556      Br  0.20391874  0.23640781  0.87415775     0.00300
C557        C  0.33059980  0.55419733  0.85682138    -0.00800
C558        C  0.30721083  0.50855008  0.85327901     0.08900
C559        C  0.31074530  0.48524147  0.88262032    -0.00900
C560        C  0.32922026  0.50565273  0.91555442    -0.00900
C561        C  0.34480190  0.54973689  0.91946422     0.09000
C562        C  0.34409832  0.57355538  0.89028656    -0.01100
Br563      Br  0.35186733  0.63051331  0.89722338     0.00300
Br564      Br  0.34353144  0.59069402  0.81659903     0.00300
Br565      Br  0.32576254  0.47198174  0.95615311     0.00300
Br566      Br  0.28714730  0.42474532  0.87880346     0.00300
C567        C  0.28273242  0.48636493  0.61481080    -0.00800
C568        C  0.29391880  0.50616164  0.64808116     0.08900
C569        C  0.33792500  0.55156087  0.65073937    -0.00900
C570        C  0.36419637  0.57524147  0.61987566    -0.00900
C571        C  0.33302534  0.55768264  0.58698328     0.09000
C572        C  0.29352743  0.51167535  0.58481362    -0.01100
Br573      Br  0.26090339  0.48233398  0.54074562     0.00300
Br574      Br  0.26341323  0.42646625  0.61105356     0.00300
Br575      Br  0.45573206  0.61996166  0.62299375     0.00300
Br576      Br  0.36789208  0.58194552  0.69531588     0.00300
C577        C  0.33387580  0.78809428  0.28260630     0.46500
H578        H  0.33441046  0.78649412  0.31130574    -0.02500
C579        C  0.33277908  0.78929882  0.21570132     0.46600
H580        H  0.33190358  0.78998694  0.18685524    -0.02500
C581        C  0.29708660  0.73944494  0.26552982    -0.16200
C582        C  0.29454982  0.81372112  0.26892816    -0.16000
C583        C  0.40947571  0.81246584  0.26745751    -0.16300
C584        C  0.29640813  0.74014590  0.23037640    -0.16300
C585        C  0.29351008  0.81389206  0.23244850    -0.15900
C586        C  0.40910990  0.81207580  0.23015067    -0.16200
C587        C  0.16140187  0.89983448  0.21878303     0.46500
H588        H  0.15780163  0.89674327  0.19001715    -0.02500
C589        C  0.16520141  0.90333523  0.28542697     0.46600
H590        H  0.16495899  0.90368066  0.31418925    -0.02500
C591        C  0.19716241  0.94989897  0.23256781    -0.16200
C592        C  0.08872836  0.87624332  0.23598334    -0.16000
C593        C  0.20020866  0.87538943  0.23487191    -0.16300
C594        C  0.19997708  0.95182133  0.26871707    -0.16300
C595        C  0.09025960  0.87762065  0.27074669    -0.15900
C596        C  0.20241370  0.87725212  0.27012221    -0.16200
N597        N  0.25507732  0.82980085  0.21004314    -0.02400
C598        C  0.24331093  0.81603100  0.17603544     0.00200
C599        C  0.17702281  0.80286046  0.16685739    -0.22700
C600        C  0.14920641  0.81448002  0.19349615    -0.22900
C601        C  0.19915627  0.83521852  0.21796382     0.00100
H602        H  0.15684297  0.79742156  0.14060542     0.13800
H603        H  0.10432483  0.81799445  0.19074961     0.13900
N604        N  0.25928438  0.83059770  0.29376867    -0.02400
C605        C  0.25379770  0.81887676  0.32816712     0.00200
C606        C  0.19313537  0.81230455  0.34227398    -0.22700
C607        C  0.16246056  0.82467112  0.31818374    -0.22900
C608        C  0.20534836  0.83989658  0.28990867     0.00100
H609        H  0.18055317  0.81032630  0.36978993     0.13800
H610        H  0.12004105  0.83028565  0.32403758     0.13900
N611        N  0.23075196  0.99265456  0.29085993    -0.02400
C612        C  0.23635117  0.98602009  0.32549473     0.00200
C613        C  0.30232028  0.67486171  0.33466004    -0.22700
C614        C  0.33330566  0.70556923  0.30999659    -0.22900
C615        C  0.28922421  0.69789353  0.28331188     0.00100
H616        H  0.31911297  0.67827142  0.36161692     0.13800
H617        H  0.37491556  0.73650020  0.31512316     0.13900
N618        N  0.22087384  0.98832368  0.20852482    -0.03300
C619        C  0.21941303  0.97833301  0.17362585     0.00200
C620        C  0.28590709  0.67870712  0.15429348    -0.22700
C621        C  0.32104010  0.70979743  0.17807612    -0.22900
C622        C  0.28562238  0.69949763  0.20881868     0.00100
H623        H  0.29330439  0.68355512  0.12627013     0.13800
H624        H  0.35982810  0.74137424  0.17084857     0.13900
N625        N  0.47075113  0.82895166  0.20607144    -0.02400
C626        C  0.46551382  0.83371073  0.17022079     0.00200
C627        C  0.99453448  0.88189169  0.17052683    -0.22700
C628        C  0.02877977  0.90242601  0.19943578    -0.22900
C629        C  0.02421773  0.86959019  0.21976092     0.00100
H630        H  0.01102345  0.89984813  0.14717831     0.13800
H631        H  0.06805015  0.93603964  0.20079034     0.13900
N632        N  0.47137932  0.83336577  0.29110406    -0.02400
C633        C  0.46762988  0.83891854  0.32705662     0.00200
C634        C  0.00283511  0.87282814  0.34344111    -0.22700
C635        C  0.03337466  0.89730329  0.31559212    -0.22900
C636        C  0.02535458  0.86831354  0.28987896     0.00100
H637        H  0.02367042  0.88578369  0.36877561     0.13800
H638        H  0.07264994  0.93043016  0.31634449     0.13900
Fe639      Fe  0.37433621  0.97787316  0.99655753     1.65800
Fe640      Fe  0.48330774  0.93386875  0.50035660     1.73200
Fe641      Fe  0.07387039  0.70834839  0.50024032     1.54400
O642        O  0.03612735  0.72915608  0.45842423    -0.80600
O643        O  0.05168976  0.95095019  0.03874641    -0.78900
O644        O  0.40645719  0.69106130  0.45190847    -0.83100
O645        O  0.42924961  0.70104894  0.03814092    -0.78000
O646        O  0.12028714  0.68996162  0.46298736    -0.79800
O647        O  0.40455937  0.90255468  0.04022778    -0.82500
C648        C  0.48479300  0.72929641  0.05131972     0.98300
C649        C  0.46183167  0.71552266  0.43593432     1.05700
O650        O  0.47625829  0.98814343  0.49677988    -1.11500
O651        O  0.39718652  0.89567191  0.47201030    -0.73900
O652        O  0.35505382  0.93942414  0.45630693    -0.77400
O653        O  0.03138340  0.73909788  0.03953163    -0.78100
C654        C  0.36199256  0.90521461  0.45182208     0.97200
O655        O  0.33878335  0.93450263  0.03890738    -0.76100
O656        O  0.03981572  0.94460554  0.45731486    -0.81200
C657        C  0.09462888  0.98808719  0.05041301     0.99800
C658        C  0.08634906  0.98049808  0.44599054     1.05700
O659        O  0.10274739  0.69032826  0.03738661    -0.76900
C660        C  0.35858430  0.90941409  0.05299851     1.04000
C661        C  0.48058452  0.77159957  0.34513972    -0.00800
C662        C  0.47034191  0.80777412  0.35493558     0.08900
C663        C  0.46534463  0.81370346  0.39219991    -0.00900
C664        C  0.45993433  0.78228320  0.41692826    -0.00900
C665        C  0.46163945  0.74422916  0.40644249     0.09000
C666        C  0.47010673  0.73872071  0.36990274    -0.01100
Br667      Br  0.45183184  0.68405668  0.34957821     0.00300
Br668      Br  0.50291482  0.76258193  0.29682672     0.00300
Br669      Br  0.44788567  0.79027753  0.46688080     0.00300
Br670      Br  0.47187400  0.86446107  0.41459368     0.00300
C671        C  0.99538011  0.82675851  0.10982111    -0.00800
C672        C  0.47124791  0.80468619  0.14072531     0.08900
C673        C  0.47330937  0.76487720  0.14600084    -0.00900
C674        C  0.46621544  0.73782645  0.11637511    -0.00900
C675        C  0.48446077  0.75557908  0.08251684     0.09000
C676        C  0.01109116  0.80366938  0.08417348    -0.01100
Br677      Br  0.06718633  0.83336122  0.04452460     0.00300
Br678      Br  0.97848917  0.86888115  0.08742428     0.00300
Br679      Br  0.40958418  0.67701015  0.12026240     0.00300
Br680      Br  0.47872902  0.74371352  0.19191287     0.00300
C681        C  0.14094419  0.66506325  0.14473382    -0.00800
C682        C  0.16244979  0.96709542  0.14915278     0.08900
C683        C  0.16391991  0.94399807  0.11846279    -0.00900
C684        C  0.15327831  0.95728666  0.08563341    -0.00900
C685        C  0.12798503  0.98716107  0.08321018     0.09000
C686        C  0.11929431  0.67259363  0.11234361    -0.01100
Br687      Br  0.08920528  0.71619937  0.10968211     0.00300
Br688      Br  0.13755515  0.69763407  0.18567694     0.00300
Br689      Br  0.18630439  0.94214949  0.04374208     0.00300
Br690      Br  0.19668758  0.90168826  0.12045145     0.00300
C691        C  0.14585860  0.99763740  0.35249632    -0.00800
C692        C  0.18086497  0.97292750  0.35084687     0.08900
C693        C  0.17986579  0.94782695  0.37988784    -0.00900
C694        C  0.14709486  0.94912716  0.41082255    -0.00900
C695        C  0.12104322  0.97881598  0.41391501     0.09000
C696        C  0.12157747  0.00359214  0.38479981    -0.01100
Br697      Br  0.09262442  0.04761465  0.38887601     0.00300
Br698      Br  0.13283844  0.02500867  0.31130017     0.00300
Br699      Br  0.18069527  0.59088769  0.45217147     0.00300
Br700      Br  0.21533898  0.57089493  0.37230619     0.00300
C701        C  0.35125981  0.88261681  0.35487012    -0.00800
C702        C  0.31092859  0.83689447  0.35309779     0.08900
C703        C  0.30294746  0.81321852  0.38399366    -0.00900
C704        C  0.31015935  0.83384998  0.41685131    -0.00900
C705        C  0.33992118  0.88003951  0.41853939     0.09000
C706        C  0.37072610  0.90282176  0.38783009    -0.01100
Br707      Br  0.45882086  0.95021590  0.39269905     0.00300
Br708      Br  0.38036217  0.91785147  0.31325620     0.00300
Br709      Br  0.28791421  0.79899024  0.45829968     0.00300
Br710      Br  0.29820484  0.75681613  0.38063916     0.00300
C711        C  0.27638180  0.81679887  0.11472925    -0.00800
C712        C  0.29324175  0.83714060  0.14781875     0.08900
C713        C  0.34056787  0.88205747  0.14942927    -0.00900
C714        C  0.36535931  0.90419247  0.11789694    -0.00900
C715        C  0.32955063  0.88699972  0.08619549     0.09000
C716        C  0.28396094  0.84189074  0.08505136    -0.01100
Br717      Br  0.23942501  0.81301925  0.04266569     0.00300
Br718      Br  0.26275229  0.75831786  0.10983068     0.00300
Br719      Br  0.45950367  0.94364855  0.11680184     0.00300
Br720      Br  0.37695686  0.91368223  0.19289465     0.00300
C721        C  0.33247694  0.78503105  0.78231952     0.46500
H722        H  0.33322574  0.78503594  0.81119074    -0.02500
C723        C  0.33032196  0.78382603  0.71532579     0.46600
H724        H  0.32844586  0.78324395  0.68641663    -0.02500
C725        C  0.29435278  0.73582301  0.76707493    -0.16200
C726        C  0.29372257  0.81086820  0.76722826    -0.16000
C727        C  0.40806143  0.80650814  0.76669226    -0.16300
C728        C  0.29310417  0.73516744  0.73192973    -0.16300
C729        C  0.29304999  0.81030365  0.73079212    -0.15900
C730        C  0.40707805  0.80635928  0.72921422    -0.16200
C731        C  0.16378731  0.89945164  0.71532489     0.46500
H732        H  0.16175546  0.89730478  0.68648063    -0.02500
C733        C  0.16416720  0.90114174  0.78203018     0.46600
H734        H  0.16183949  0.90041704  0.81071635    -0.02500
C735        C  0.19907174  0.94920172  0.73024696    -0.16200
C736        C  0.09002195  0.87574846  0.73150210    -0.16000
C737        C  0.20165248  0.87429025  0.73133684    -0.16300
C738        C  0.19966302  0.95002259  0.76650718    -0.16300
C739        C  0.09019863  0.87649315  0.76640375    -0.15900
C740        C  0.20239447  0.87547805  0.76658691    -0.16200
N741        N  0.25779361  0.82809259  0.70751959    -0.02400
C742        C  0.24910786  0.81586300  0.67304408     0.00200
C743        C  0.18369904  0.80340934  0.66245983    -0.22700
C744        C  0.15357886  0.81422666  0.68853198    -0.22900
C745        C  0.20174072  0.83427554  0.71400037     0.00100
H746        H  0.16608903  0.79941283  0.63573001     0.13800
H747        H  0.10823238  0.81720466  0.68512229     0.13900
N748        N  0.25672299  0.82772047  0.79087225    -0.02400
C749        C  0.24539867  0.81334772  0.82451810     0.00200
C750        C  0.18173784  0.80449087  0.83576269    -0.22700
C751        C  0.15555899  0.81917476  0.81118016    -0.22900
C752        C  0.20312638  0.83691685  0.78532096     0.00100
H753        H  0.16414836  0.80021895  0.86252741     0.13800
H754        H  0.11343053  0.82533803  0.81591043     0.13900
N755        N  0.22812796  0.98990698  0.78981058    -0.02400
C756        C  0.23172603  0.98201182  0.82446713     0.00200
C757        C  0.29504416  0.67583774  0.84012268    -0.22700
C758        C  0.32861565  0.70446393  0.81455008    -0.22900
C759        C  0.28662851  0.69494573  0.78650661     0.00100
H760        H  0.30832814  0.68271742  0.86746544     0.13800
H761        H  0.37094516  0.73553454  0.81921897     0.13900
N762        N  0.22428666  0.98833184  0.70692122    -0.03300
C763        C  0.22593026  0.97980779  0.67191566     0.00200
C764        C  0.27776979  0.67324951  0.65822577    -0.22700
C765        C  0.31711594  0.70264777  0.68182548    -0.22900
C766        C  0.28255145  0.69333432  0.71268874     0.00100
H767        H  0.28028791  0.68046589  0.63062844     0.13800
H768        H  0.35618996  0.73396029  0.67423873     0.13900
N769        N  0.46848929  0.82420308  0.70468118    -0.02400
C770        C  0.46324911  0.82976438  0.66877561     0.00200
C771        C  0.00226829  0.87861179  0.66179498    -0.22700
C772        C  0.03430164  0.90051952  0.69086873    -0.22900
C773        C  0.02600409  0.86893636  0.71379080     0.00100
H774        H  0.02069401  0.89341295  0.63678767     0.13800
H775        H  0.07413531  0.93378633  0.69191087     0.13900
N776        N  0.47055554  0.82377477  0.79002751    -0.02400
C777        C  0.46705052  0.82663492  0.82657289     0.00200
C778        C  0.96820189  0.87644669  0.82630444    -0.22700
C779        C  0.01953935  0.89894545  0.80369567    -0.22900
C780        C  0.02480549  0.86702123  0.78472104     0.00100
H781        H  0.94745683  0.89129156  0.84407996     0.13800
H782        H  0.05162881  0.93395861  0.80262472     0.13900
Fe783      Fe  0.38668194  0.98502295  0.49733466     1.65800
Fe784      Fe  0.46796565  0.92338483  0.99901710     1.73200
Fe785      Fe  0.06139375  0.71264509  0.99882950     1.54400
O786        O  0.02916614  0.74091752  0.95948137    -0.80600
O787        O  0.05809981  0.95140073  0.53354264    -0.78900
O788        O  0.42680131  0.68953216  0.95728246    -0.83100
O789        O  0.41354308  0.69995254  0.53339467    -0.78000
O790        O  0.10330582  0.69256486  0.95933936    -0.79800
O791        O  0.43094036  0.91840052  0.54527571    -0.82500
C792        C  0.47112124  0.72945345  0.54382818     0.98300
C793        C  0.48104927  0.71725184  0.94238143     1.05700
O794        O  0.46323359  0.97881586  0.99647176    -1.11500
O795        O  0.39100642  0.89069601  0.96480578    -0.73900
O796        O  0.33512548  0.92882963  0.95880067    -0.77400
O797        O  0.04169020  0.73563260  0.53914292    -0.78100
C798        C  0.34795829  0.89822160  0.94972510     0.97200
O799        O  0.34886667  0.93574825  0.53622334    -0.76100
O800        O  0.05682649  0.94863398  0.96210941    -0.81200
C801        C  0.09578785  0.98761403  0.54834016     0.99800
C802        C  0.09623540  0.98421651  0.94762375     1.05700
O803        O  0.11734984  0.69076391  0.54033935    -0.76900
C804        C  0.37631328  0.91744605  0.55410878     1.04000
C805        C  0.48288952  0.75959587  0.84719517    -0.00800
C806        C  0.46540152  0.79366833  0.85443384     0.08900
C807        C  0.44962114  0.79758184  0.89048796    -0.00900
C808        C  0.44809386  0.76912343  0.91675579    -0.00900
C809        C  0.47409721  0.74038697  0.91056043     0.09000
C810        C  0.48740574  0.73346259  0.87495550    -0.01100
Br811      Br  0.49961093  0.68359681  0.86232187     0.00300
Br812      Br  0.49497039  0.74501865  0.79922247     0.00300
Br813      Br  0.40677756  0.76818744  0.96226667     0.00300
Br814      Br  0.43630436  0.84349105  0.90942408     0.00300
C815        C  0.98647457  0.81929211  0.60487123    -0.00800
C816        C  0.47043941  0.80248049  0.63789965     0.08900
C817        C  0.46176872  0.75930801  0.64024819    -0.00900
C818        C  0.44989108  0.73427344  0.60872051    -0.00900
C819        C  0.47636772  0.75503676  0.57658982     0.09000
C820        C  0.00743396  0.79890758  0.57953630    -0.01100
Br821      Br  0.04923456  0.82861159  0.53669290     0.00300
Br822      Br  0.94252200  0.84785243  0.58421275     0.00300
Br823      Br  0.38406922  0.67470060  0.60727314     0.00300
Br824      Br  0.47521310  0.73584575  0.68325861     0.00300
C825        C  0.13615512  0.66042100  0.65025463    -0.00800
C826        C  0.17033215  0.96855711  0.64656093     0.08900
C827        C  0.17243820  0.94569882  0.61594578    -0.00900
C828        C  0.15589315  0.95615656  0.58327064    -0.00900
C829        C  0.12918105  0.98555233  0.58108668     0.09000
C830        C  0.12301566  0.67167965  0.61714094    -0.01100
Br831      Br  0.09296680  0.71511718  0.61302901     0.00300
Br832      Br  0.13074149  0.69255902  0.69102280     0.00300
Br833      Br  0.18230108  0.93696138  0.54111572     0.00300
Br834      Br  0.21046329  0.90610598  0.61796439     0.00300
C835        C  0.14494008  0.99636888  0.85229510    -0.00800
C836        C  0.17499845  0.96869602  0.84923052     0.08900
C837        C  0.17580280  0.94444191  0.87851781    -0.00900
C838        C  0.15383482  0.95127436  0.91129626    -0.00900
C839        C  0.12956743  0.98190158  0.91497745     0.09000
C840        C  0.12686927  0.00517423  0.88552247    -0.01100
Br841      Br  0.11002350  0.05456180  0.89125056     0.00300
Br842      Br  0.13606984  0.02708937  0.81223331     0.00300
Br843      Br  0.14026551  0.58439073  0.95315969     0.00300
Br844      Br  0.19044733  0.56440150  0.87892086     0.00300
C845        C  0.34363671  0.87555429  0.85327478    -0.00800
C846        C  0.29776490  0.83044179  0.85196654     0.08900
C847        C  0.27982633  0.80775182  0.88365874    -0.00900
C848        C  0.28233563  0.82998561  0.91482538    -0.00900
C849        C  0.32310008  0.87561402  0.91617789     0.09000
C850        C  0.36141348  0.89639482  0.88615777    -0.01100
Br851      Br  0.45229727  0.94066830  0.89289806     0.00300
Br852      Br  0.38589272  0.90817193  0.81157791     0.00300
Br853      Br  0.23715478  0.79707069  0.95533613     0.00300
Br854      Br  0.27253902  0.75103830  0.88501357     0.00300
C855        C  0.28700577  0.82041984  0.61182166    -0.00800
C856        C  0.30135476  0.83856718  0.64587676     0.08900
C857        C  0.34920162  0.88329088  0.64934448    -0.00900
C858        C  0.37795403  0.90702592  0.61886826    -0.00900
C859        C  0.34487215  0.89248303  0.58620228     0.09000
C860        C  0.29778727  0.84778198  0.58309440    -0.01100
Br861      Br  0.25267350  0.82302472  0.53976933     0.00300
Br862      Br  0.26458735  0.76029268  0.60485841     0.00300
Br863      Br  0.47157085  0.94736046  0.62086055     0.00300
Br864      Br  0.37807334  0.91375163  0.69386271     0.00300
C865        C  0.82856941  0.12129290  0.28067676     0.46500
H866        H  0.82887766  0.12180321  0.30955304    -0.02500
C867        C  0.82629469  0.11941535  0.21381864     0.46600
H868        H  0.82511847  0.11854215  0.18501632    -0.02500
C869        C  0.79195040  0.07187031  0.26501495    -0.16200
C870        C  0.78824612  0.14592224  0.26566522    -0.16000
C871        C  0.90440363  0.14386571  0.26533925    -0.16300
C872        C  0.79029256  0.07086589  0.22980685    -0.16300
C873        C  0.78668209  0.14443318  0.22937741    -0.15900
C874        C  0.90306084  0.14304038  0.22796791    -0.16200
C875        C  0.66156702  0.23469514  0.21236986     0.46500
H876        H  0.66088407  0.23252641  0.18375288    -0.02500
C877        C  0.65863330  0.23666858  0.27887044     0.46600
H878        H  0.65458975  0.23615451  0.30746112    -0.02500
C879        C  0.69672017  0.28466698  0.22718201    -0.16200
C880        C  0.58709508  0.21078635  0.22734010    -0.16000
C881        C  0.69769774  0.20901004  0.22937109    -0.16300
C882        C  0.69460455  0.28537368  0.26343965    -0.16300
C883        C  0.58574225  0.21254921  0.26210294    -0.15900
C884        C  0.69693786  0.21047943  0.26463405    -0.16200
N885        N  0.74547895  0.15755630  0.20635417    -0.02400
C886        C  0.73249551  0.14170777  0.17298109     0.00200
C887        C  0.66800037  0.13222722  0.16297412    -0.22700
C888        C  0.64303559  0.14762720  0.18839517    -0.22900
C889        C  0.69307906  0.16733823  0.21300508     0.00100
H890        H  0.64890272  0.12720251  0.13654146     0.13800
H891        H  0.60028977  0.15327614  0.18461040     0.13900
N892        N  0.74967830  0.16154910  0.28934433    -0.02400
C893        C  0.74125022  0.14883920  0.32341679     0.00200
C894        C  0.67848212  0.14050326  0.33570643    -0.22700
C895        C  0.65275684  0.15684965  0.31201189    -0.22900
C896        C  0.69768951  0.17258893  0.28472531     0.00100
H897        H  0.66248909  0.13630906  0.36280693     0.13800
H898        H  0.61265563  0.16462271  0.31797284     0.13900
N899        N  0.71940006  0.32519874  0.28652604    -0.02400
C900        C  0.72034507  0.31698315  0.32162072     0.00200
C901        C  0.79228921  0.01240941  0.33839914    -0.22700
C902        C  0.82468594  0.04249874  0.31383933    -0.22900
C903        C  0.78540445  0.03173535  0.28458430     0.00100
H904        H  0.80388191  0.01770991  0.36614065     0.13800
H905        H  0.86323867  0.07446877  0.32007001     0.13900
N906        N  0.72383824  0.32371204  0.20342425    -0.03300
C907        C  0.72149129  0.31460344  0.16828068     0.00200
C908        C  0.77855058  0.00815542  0.15536493    -0.22700
C909        C  0.81544630  0.03861271  0.17913364    -0.22900
C910        C  0.77953132  0.02929977  0.20954668     0.00100
H911        H  0.78522913  0.01327971  0.12743622     0.13800
H912        H  0.85488883  0.06989291  0.17185957     0.13900
N913        N  0.96416045  0.16033314  0.20345815    -0.02400
C914        C  0.95737248  0.16484951  0.16776329     0.00200
C915        C  0.47170288  0.20644256  0.16383623    -0.22700
C916        C  0.51851338  0.23008227  0.18805515    -0.22900
C917        C  0.52239617  0.19940433  0.20807628     0.00100
H918        H  0.45828622  0.22068585  0.14335058     0.13800
H919        H  0.55026497  0.26500167  0.18903859     0.13900
N920        N  0.96740904  0.16222461  0.28857878    -0.02400
C921        C  0.96462554  0.16826270  0.32484639     0.00200
C922        C  0.49889796  0.21981583  0.33056276    -0.22700
C923        C  0.52993818  0.24026556  0.30107834    -0.22900
C924        C  0.52158136  0.20743069  0.27865329     0.00100
H925        H  0.51784247  0.23712484  0.35483727     0.13800
H926        H  0.56971379  0.27374703  0.29973300     0.13900
Fe927      Fe  0.86066643  0.30492634  0.00336508     1.65800
Fe928      Fe  0.97438761  0.26673874  0.49634226     1.73200
Fe929      Fe  0.55871524  0.04478771  0.49422473     1.54400
O930        O  0.52328997  0.06582011  0.45080060    -0.80600
O931        O  0.55197854  0.28606755  0.03324289    -0.78900
O932        O  0.91052093  0.02863697  0.45811738    -0.83100
O933        O  0.91763071  0.03120007  0.03827663    -0.78000
O934        O  0.60428270  0.02083396  0.45900294    -0.79800
O935        O  0.87941522  0.22117059  0.03501346    -0.82500
C936        C  0.97425371  0.06061939  0.04952931     0.98300
C937        C  0.96485426  0.05443187  0.44221325     1.05700
O938        O  0.97106737  0.32285417  0.49635459    -1.11500
O939        O  0.90351093  0.23958706  0.45898446    -0.73900
O940        O  0.84479776  0.27623395  0.45592324    -0.77400
O941        O  0.51552068  0.06504185  0.03111456    -0.78100
C942        C  0.85971473  0.24689395  0.44472432     0.97200
O943        O  0.82608040  0.26085266  0.04336687    -0.76100
O944        O  0.52327191  0.27200003  0.45625391    -0.81200
C945        C  0.59388212  0.32190113  0.04731448     0.99800
C946        C  0.56949091  0.30846599  0.44597316     1.05700
O947        O  0.59084933  0.01943596  0.03609951    -0.76900
C948        C  0.83783741  0.22973387  0.05105809     1.04000
C949        C  0.97138121  0.09939696  0.34809873    -0.00800
C950        C  0.96368810  0.13740259  0.35465494     0.08900
C951        C  0.95672198  0.14580395  0.39138807    -0.00900
C952        C  0.95502538  0.11800874  0.41869965    -0.00900
C953        C  0.96147713  0.08084810  0.41153021     0.09000
C954        C  0.96275922  0.06993900  0.37572945    -0.01100
Br955      Br  0.92501695  0.01036371  0.36285966     0.00300
Br956      Br  0.98456649  0.08229129  0.30103696     0.00300
Br957      Br  0.93539739  0.12732974  0.46693720     0.00300
Br958      Br  0.95232174  0.19506736  0.40950138     0.00300
C959        C  0.48482970  0.15542540  0.10120643    -0.00800
C960        C  0.96652641  0.13713546  0.13845611     0.08900
C961        C  0.96537398  0.09638023  0.14370619    -0.00900
C962        C  0.95580697  0.06916454  0.11398925    -0.00900
C963        C  0.97717288  0.08742261  0.08069763     0.09000
C964        C  0.49027911  0.13026171  0.07304032    -0.01100
Br965      Br  0.53216781  0.15652543  0.02861962     0.00300
Br966      Br  0.50146652  0.21113435  0.08571845     0.00300
Br967      Br  0.89665349  0.00872649  0.11658591     0.00300
Br968      Br  0.97632479  0.07639313  0.18902996     0.00300
C969        C  0.63315506  0.99535558  0.14409063    -0.00800
C970        C  0.66131884  0.29906388  0.14586160     0.08900
C971        C  0.66316019  0.27618646  0.11525407    -0.00900
C972        C  0.65065910  0.28870662  0.08250971    -0.00900
C973        C  0.62513361  0.31869162  0.08032063     0.09000
C974        C  0.61334066  0.00374660  0.11127920    -0.01100
Br975      Br  0.58162599  0.04650018  0.10800545     0.00300
Br976      Br  0.62567962  0.02593374  0.18525220     0.00300
Br977      Br  0.67348111  0.26699006  0.04066374     0.00300
Br978      Br  0.69717022  0.23451761  0.11714976     0.00300
C979        C  0.64079847  0.33573647  0.35388763    -0.00800
C980        C  0.66465123  0.30516297  0.34767170     0.08900
C981        C  0.65891880  0.27631226  0.37517122    -0.00900
C982        C  0.62641452  0.27633254  0.40689686    -0.00900
C983        C  0.60776380  0.30931656  0.41368325     0.09000
C984        C  0.62147278  0.34144914  0.38802242    -0.01100
Br985      Br  0.62751606  0.39725681  0.40133010     0.00300
Br986      Br  0.63990530  0.37226961  0.31647180     0.00300
Br987      Br  0.64584051  0.91638741  0.44978125     0.00300
Br988      Br  0.71943031  0.91084950  0.37643329     0.00300
C989        C  0.83618808  0.21683751  0.34847778    -0.00800
C990        C  0.79508894  0.17103954  0.34971113     0.08900
C991        C  0.78609120  0.15057039  0.38222187    -0.00900
C992        C  0.79603383  0.17499759  0.41329866    -0.00900
C993        C  0.83059579  0.22132253  0.41216668     0.09000
C994        C  0.86087918  0.23999032  0.37985666    -0.01100
Br995      Br  0.95417414  0.28102771  0.37884443     0.00300
Br996      Br  0.86470680  0.24909317  0.30520686     0.00300
Br997      Br  0.77300609  0.14455121  0.45684163     0.00300
Br998      Br  0.77142725  0.09159525  0.38331999     0.00300
C999        C  0.76542219  0.13766389  0.11255979    -0.00800
C1000       C  0.78396331  0.15922963  0.14521894     0.08900
C1001       C  0.83101927  0.20433765  0.14564121    -0.00900
C1002       C  0.85045537  0.22576992  0.11372762    -0.00900
C1003       C  0.81211771  0.20661408  0.08347563     0.09000
C1004       C  0.76864338  0.16144983  0.08289792    -0.01100
Br1005     Br  0.71857984  0.13164687  0.04182653     0.00300
Br1006     Br  0.76103372  0.08195460  0.10679454     0.00300
Br1007     Br  0.94145131  0.26987162  0.10838474     0.00300
Br1008     Br  0.86929877  0.23853692  0.18783463     0.00300
C1009       C  0.82404631  0.11882559  0.78099207     0.46500
H1010       H  0.82368349  0.11909571  0.80985402    -0.02500
C1011       C  0.82449441  0.11855305  0.71402542     0.46600
H1012       H  0.82404541  0.11827013  0.68511038    -0.02500
C1013       C  0.78742154  0.06945925  0.76516704    -0.16200
C1014       C  0.78531858  0.14436341  0.76550749    -0.16000
C1015       C  0.90036062  0.14181126  0.76635865    -0.16300
C1016       C  0.78735701  0.06947793  0.72990138    -0.16300
C1017       C  0.78607027  0.14436509  0.72900170    -0.15900
C1018       C  0.90053581  0.14206411  0.72892797    -0.16200
C1019       C  0.65682411  0.23319109  0.71260698     0.46500
H1020       H  0.65482866  0.23112640  0.68383627    -0.02500
C1021       C  0.65714345  0.23458851  0.77917408     0.46600
H1022       H  0.65590040  0.23437891  0.80757440    -0.02500
C1023       C  0.69261772  0.28289826  0.72763423    -0.16200
C1024       C  0.58291096  0.20919089  0.72873561    -0.16000
C1025       C  0.69476783  0.20810568  0.72865514    -0.16300
C1026       C  0.69271529  0.28328878  0.76393156    -0.16300
C1027       C  0.58312930  0.21026520  0.76352752    -0.15900
C1028       C  0.69482880  0.20877649  0.76388906    -0.16200
N1029       N  0.75246183  0.16275025  0.70516620    -0.02400
C1030       C  0.74496073  0.15068222  0.67057887     0.00200
C1031       C  0.68043988  0.13913521  0.65909319    -0.22700
C1032       C  0.64961924  0.14993679  0.68463450    -0.22900
C1033       C  0.69614628  0.16888470  0.71091009     0.00100
H1034       H  0.66440312  0.13601126  0.63212646     0.13800
H1035       H  0.60556473  0.15405480  0.68028896     0.13900
N1036       N  0.74821925  0.16119697  0.78893099    -0.02400
C1037       C  0.73516323  0.14588097  0.82236821     0.00200
C1038       C  0.66925979  0.13395933  0.83171219    -0.22700
C1039       C  0.64535745  0.15070076  0.80739012    -0.22900
C1040       C  0.69446459  0.16976224  0.78244147     0.00100
H1041       H  0.64887063  0.12749571  0.85798385     0.13800
H1042       H  0.60375573  0.15735926  0.81205733     0.13900
N1043       N  0.72051062  0.32304032  0.78711818    -0.02400
C1044       C  0.72215576  0.31620504  0.82223389     0.00200
C1045       C  0.78635627  0.00715747  0.83804819    -0.22700
C1046       C  0.81921741  0.03795072  0.81372065    -0.22900
C1047       C  0.77972598  0.02832593  0.78468358     0.00100
H1048       H  0.79766190  0.01323302  0.86562319     0.13800
H1049       H  0.85838929  0.06974213  0.81991458     0.13900
N1050       N  0.71932983  0.32213754  0.70413575    -0.03300
C1051       C  0.71616981  0.31348870  0.66878871     0.00200
C1052       C  0.78125937  0.00858653  0.65557980    -0.22700
C1053       C  0.81619668  0.03827181  0.68015925    -0.22900
C1054       C  0.77824563  0.02829665  0.70985411     0.00100
H1055       H  0.79085960  0.01482616  0.62780747     0.13800
H1056       H  0.85524791  0.06987359  0.67364116     0.13900
N1057       N  0.96239458  0.16147313  0.70494146    -0.02400
C1058       C  0.95738463  0.16669508  0.66912031     0.00200
C1059       C  0.48374053  0.21082306  0.66217089    -0.22700
C1060       C  0.52076740  0.23269470  0.69015008    -0.22900
C1061       C  0.51794978  0.20115664  0.71144658     0.00100
H1062       H  0.49595031  0.22699470  0.63753416     0.13800
H1063       H  0.55824124  0.26650837  0.69130141     0.13900
N1064       N  0.96222133  0.16048614  0.79035479    -0.02400
C1065       C  0.95807163  0.16417903  0.82677434     0.00200
C1066       C  0.49901827  0.21316361  0.83437572    -0.22700
C1067       C  0.52819051  0.23544742  0.80528551    -0.22900
C1068       C  0.51902365  0.20413232  0.78140788     0.00100
H1069       H  0.52171273  0.22824341  0.85870097     0.13800
H1070       H  0.56809863  0.26864548  0.80449602     0.13900
Fe1071     Fe  0.88277152  0.32259675  0.49756594     1.65800
Fe1072     Fe  0.95030715  0.24784606  0.99734888     1.73200
Fe1073     Fe  0.54763310  0.03514510  0.99409835     1.54400
O1074       O  0.51229840  0.05612426  0.95068532    -0.80600
O1075       O  0.52805453  0.27228934  0.53474459    -0.78900
O1076       O  0.90665325  0.02054417  0.95799338    -0.83100
O1077       O  0.91312899  0.02850897  0.53994523    -0.78000
O1078       O  0.59302145  0.01259654  0.95869640    -0.79800
O1079       O  0.90527518  0.23987693  0.53482097    -0.82500
C1080       C  0.96973010  0.05894321  0.55073407     0.98300
C1081       C  0.95989376  0.04924739  0.94255154     1.05700
O1082       O  0.94801330  0.30397742  0.99939259    -1.11500
O1083       O  0.87717136  0.22271285  0.96076752    -0.73900
O1084       O  0.81310375  0.25558099  0.96622292    -0.77400
O1085       O  0.52416875  0.07360388  0.53097537    -0.78100
C1086       C  0.82785308  0.22804213  0.95162791     0.97200
O1087       O  0.84436519  0.27500958  0.53739911    -0.76100
O1088       O  0.55426827  0.29273301  0.95668300    -0.81200
C1089       C  0.56762810  0.30880667  0.54943232     0.99800
C1090       C  0.59429938  0.32938362  0.94412719     1.05700
O1091       O  0.60081892  0.03046409  0.53727829    -0.76900
C1092       C  0.86051712  0.24682578  0.54894945     1.04000
C1093       C  0.96705361  0.09514596  0.84840294    -0.00800
C1094       C  0.95365018  0.13100871  0.85526658     0.08900
C1095       C  0.94025661  0.13688679  0.89137845    -0.00900
C1096       C  0.93863422  0.10858430  0.91835369    -0.00900
C1097       C  0.95297027  0.07405135  0.91143987     0.09000
C1098       C  0.96304913  0.06595832  0.87570539    -0.01100
Br1099     Br  0.96102095  0.01159533  0.86220945     0.00300
Br1100     Br  0.98566734  0.08249556  0.80107933     0.00300
Br1101     Br  0.91409752  0.11598757  0.96595349     0.00300
Br1102     Br  0.92616838  0.18442791  0.90726739     0.00300
C1103       C  0.48105016  0.15444541  0.60381210    -0.00800
C1104       C  0.96379586  0.13787195  0.63966138     0.08900
C1105       C  0.96436034  0.09761300  0.64550898    -0.00900
C1106       C  0.95450365  0.06924619  0.61636644    -0.00900
C1107       C  0.97257436  0.08602889  0.58221091     0.09000
C1108       C  0.50007300  0.13344133  0.57802834    -0.01100
Br1109     Br  0.54430514  0.16366557  0.53582772     0.00300
Br1110     Br  0.43821081  0.18263299  0.58195941     0.00300
Br1111     Br  0.90687640  0.00827076  0.62294841     0.00300
Br1112     Br  0.97626442  0.07903649  0.69147025     0.00300
C1113       C  0.63777777  0.99900131  0.64390148    -0.00800
C1114       C  0.65595887  0.29762761  0.64604489     0.08900
C1115       C  0.65640176  0.27374832  0.61559598    -0.00900
C1116       C  0.63416054  0.28136057  0.58338178    -0.00900
C1117       C  0.60262854  0.30786201  0.58192804     0.09000
C1118       C  0.62238006  0.01077300  0.61125753    -0.01100
Br1119     Br  0.58878702  0.05250480  0.60982240     0.00300
Br1120     Br  0.62582455  0.02585596  0.68629865     0.00300
Br1121     Br  0.66629361  0.26808820  0.54022716     0.00300
Br1122     Br  0.70252599  0.23885626  0.61607914     0.00300
C1123       C  0.63946946  0.33657330  0.84841071    -0.00800
C1124       C  0.66568298  0.30659129  0.84670682     0.08900
C1125       C  0.66164075  0.28228830  0.87680628    -0.00900
C1126       C  0.65081129  0.29622702  0.90940205    -0.00900
C1127       C  0.62760745  0.32734260  0.91167209     0.09000
C1128       C  0.61876403  0.34595265  0.88085990    -0.01100
Br1129     Br  0.58027986  0.38531643  0.88347339     0.00300
Br1130     Br  0.63011628  0.36407432  0.80663141     0.00300
Br1131     Br  0.62609669  0.90314348  0.94781327     0.00300
Br1132     Br  0.66749836  0.88374188  0.87152615     0.00300
C1133       C  0.80571361  0.21388133  0.85586332    -0.00800
C1134       C  0.78234573  0.16832987  0.85161554     0.08900
C1135       C  0.77283124  0.14300691  0.88169513    -0.00900
C1136       C  0.77410332  0.16041736  0.91518257    -0.00900
C1137       C  0.79410349  0.20527694  0.91923476     0.09000
C1138       C  0.80755677  0.23131367  0.88946459    -0.01100
Br1139     Br  0.82201350  0.28991380  0.89523890     0.00300
Br1140     Br  0.83590648  0.25300247  0.81640996     0.00300
Br1141     Br  0.75283630  0.12337539  0.95538412     0.00300
Br1142     Br  0.76720410  0.08655092  0.87697479     0.00300
C1143       C  0.78365526  0.15229312  0.61020849    -0.00800
C1144       C  0.79820888  0.17218156  0.64358132     0.08900
C1145       C  0.84327023  0.21754202  0.64526095    -0.00900
C1146       C  0.86761937  0.24024342  0.61372334    -0.00900
C1147       C  0.83215946  0.22290936  0.58197326     0.09000
C1148       C  0.78848242  0.17743911  0.58083047    -0.01100
Br1149     Br  0.73492619  0.14902015  0.54060043     0.00300
Br1150     Br  0.76714462  0.09317860  0.60507109     0.00300
Br1151     Br  0.96088453  0.28204991  0.61222509     0.00300
Br1152     Br  0.87485166  0.24919039  0.68900073     0.00300
C1153       C  0.83068667  0.45464036  0.27923781     0.46500
H1154       H  0.83032893  0.45363902  0.30787084    -0.02500
C1155       C  0.83043081  0.45613806  0.21248252     0.46600
H1156       H  0.83001382  0.45724348  0.18366484    -0.02500
C1157       C  0.79288659  0.40595403  0.26266110    -0.16200
C1158       C  0.79276995  0.48080854  0.26553665    -0.16000
C1159       C  0.90663379  0.47839812  0.26431485    -0.16300
C1160       C  0.79328147  0.40662180  0.22744320    -0.16300
C1161       C  0.79141941  0.48096276  0.22898059    -0.15900
C1162       C  0.90677913  0.47938075  0.22715799    -0.16200
C1163       C  0.65807635  0.56637941  0.21792419     0.46500
H1164       H  0.65446753  0.56421724  0.18924000    -0.02500
C1165       C  0.65987764  0.56632446  0.28442666     0.46600
H1166       H  0.65826032  0.56497056  0.31272139    -0.02500
C1167       C  0.69687576  0.61577342  0.23341482    -0.16200
C1168       C  0.58476346  0.54359866  0.23473964    -0.16000
C1169       C  0.69487281  0.54022424  0.23275159    -0.16300
C1170       C  0.69798705  0.61569292  0.26958264    -0.16300
C1171       C  0.58506823  0.54257620  0.26940475    -0.15900
C1172       C  0.69626378  0.54046589  0.26789348    -0.16200
N1173       N  0.75392012  0.49759743  0.20636793    -0.02400
C1174       C  0.74331294  0.48445673  0.17205847     0.00200
C1175       C  0.67688826  0.47049167  0.16256909    -0.22700
C1176       C  0.64732758  0.48089791  0.18926894    -0.22900
C1177       C  0.69670065  0.50181756  0.21406638     0.00100
H1178       H  0.65731346  0.46489563  0.13617792     0.13800
H1179       H  0.60048019  0.48235300  0.18703150     0.13900
N1180       N  0.76079679  0.49959143  0.29053693    -0.02400
C1181       C  0.75602908  0.48782771  0.32499380     0.00200
C1182       C  0.69197673  0.47479321  0.33766721    -0.22700
C1183       C  0.65852104  0.48471644  0.31329796    -0.22900
C1184       C  0.70246959  0.50359221  0.28607934     0.00100
H1185       H  0.67789974  0.47122230  0.36492640     0.13800
H1186       H  0.61425514  0.48824873  0.31900510     0.13900
N1187       N  0.73178452  0.65496282  0.29319164    -0.02400
C1188       C  0.73377015  0.64663249  0.32787946     0.00200
C1189       C  0.78228802  0.34219443  0.33556512    -0.22700
C1190       C  0.81889257  0.37166887  0.31113928    -0.22900
C1191       C  0.77994731  0.36397820  0.28207936     0.00100
H1192       H  0.79184676  0.34669695  0.36338951     0.13800
H1193       H  0.86005733  0.40251909  0.31774416     0.13900
N1194       N  0.72695708  0.65518290  0.21032714    -0.03300
C1195       C  0.72641275  0.64639324  0.17538197     0.00200
C1196       C  0.77828481  0.34409571  0.15138158    -0.22700
C1197       C  0.81385087  0.37572264  0.17458896    -0.22900
C1198       C  0.78081169  0.36553600  0.20596551     0.00100
H1199       H  0.78564735  0.34783323  0.12324515     0.13800
H1200       H  0.85160111  0.40713064  0.16670033     0.13900
N1201       N  0.96902063  0.49969758  0.20364656    -0.02400
C1202       C  0.96576930  0.50399996  0.16750889     0.00200
C1203       C  0.50032232  0.54728612  0.16599053    -0.22700
C1204       C  0.52938412  0.56952810  0.19544748    -0.22900
C1205       C  0.52078632  0.53802730  0.21838215     0.00100
H1206       H  0.52193344  0.56211065  0.14150306     0.13800
H1207       H  0.56936081  0.60267352  0.19673825     0.13900
N1208       N  0.96743508  0.49703750  0.28881178    -0.02400
C1209       C  0.95458219  0.50355687  0.32319036     0.00200
C1210       C  0.49322204  0.53747768  0.34180352    -0.22700
C1211       C  0.52791909  0.56198128  0.31466332    -0.22900
C1212       C  0.51989731  0.53323779  0.28868020     0.00100
H1213       H  0.50993379  0.55025015  0.36760840     0.13800
H1214       H  0.56739817  0.59511715  0.31598226     0.13900
Fe1215     Fe  0.88775645  0.65852990  0.00036524     1.65800
Fe1216     Fe  0.99660177  0.59629666  0.50036499     1.73200
Fe1217     Fe  0.53396207  0.36369416  0.49836820     1.54400
O1218       O  0.49958273  0.38513099  0.45594115    -0.80600
O1219       O  0.55813229  0.61695947  0.04149180    -0.78900
O1220       O  0.90996907  0.37112361  0.45831648    -0.83100
O1221       O  0.89485671  0.35263090  0.04355850    -0.78000
O1222       O  0.58131797  0.34405007  0.46120366    -0.79800
O1223       O  0.90379810  0.57211756  0.03402012    -0.82500
C1224       C  0.95271598  0.38205596  0.05352898     0.98300
C1225       C  0.96545178  0.40157924  0.44625808     1.05700
O1226       O  0.99093193  0.65106201  0.50138020    -1.11500
O1227       O  0.93398481  0.57234523  0.45923851    -0.73900
O1228       O  0.85699341  0.59411701  0.46951660    -0.77400
O1229       O  0.52287052  0.39912658  0.04231108    -0.78100
C1230       C  0.87980052  0.57260345  0.45184614     0.97200
O1231       O  0.84867941  0.61075208  0.03974183    -0.76100
O1232       O  0.52605584  0.60511833  0.45540846    -0.81200
C1233       C  0.60080555  0.65353722  0.05408589     0.99800
C1234       C  0.57510004  0.63991068  0.44428775     1.05700
O1235       O  0.60505385  0.35905630  0.03589282    -0.76900
C1236       C  0.86162961  0.58045304  0.04946115     1.04000
C1237       C  0.96501799  0.43917893  0.35143480    -0.00800
C1238       C  0.96732274  0.48067950  0.35503604     0.08900
C1239       C  0.98168952  0.49888700  0.39019274    -0.00900
C1240       C  0.98234402  0.47378076  0.41949645    -0.00900
C1241       C  0.96487916  0.42931728  0.41558872     0.09000
C1242       C  0.95359529  0.41255813  0.38117417    -0.01100
Br1243     Br  0.90989891  0.35167300  0.37472040     0.00300
Br1244     Br  0.98362001  0.41824526  0.30724647     0.00300
Br1245     Br  0.00335703  0.49940555  0.46583548     0.00300
Br1246     Br  0.01202984  0.55952907  0.40042035     0.00300
C1247       C  0.48706803  0.48553616  0.11032530    -0.00800
C1248       C  0.96492312  0.47182477  0.13892651     0.08900
C1249       C  0.96560154  0.43218785  0.14672597    -0.00900
C1250       C  0.95080112  0.40046943  0.11960929    -0.00900
C1251       C  0.95932045  0.41222899  0.08370236     0.09000
C1252       C  0.50337405  0.46138259  0.08649811    -0.01100
Br1253     Br  0.56250779  0.49125960  0.04800882     0.00300
Br1254     Br  0.45865383  0.52112503  0.08618972     0.00300
Br1255     Br  0.90831239  0.34139987  0.13329730     0.00300
Br1256     Br  0.97612210  0.41674625  0.19420438     0.00300
C1257       C  0.63209842  0.32727067  0.14412337    -0.00800
C1258       C  0.66828675  0.63291387  0.15203390     0.08900
C1259       C  0.66926890  0.60909645  0.12182016    -0.00900
C1260       C  0.65581643  0.62067559  0.08909911    -0.00900
C1261       C  0.63175993  0.65122890  0.08680309     0.09000
C1262       C  0.61572312  0.33778077  0.11139646    -0.01100
Br1263     Br  0.58616595  0.38161150  0.10946345     0.00300
Br1264     Br  0.62399270  0.35712139  0.18581180     0.00300
Br1265     Br  0.68211705  0.60127379  0.04687675     0.00300
Br1266     Br  0.70572339  0.56886228  0.12384350     0.00300
C1267       C  0.64534256  0.66115553  0.35298474    -0.00800
C1268       C  0.67497889  0.63328430  0.35126788     0.08900
C1269       C  0.66245249  0.60303076  0.37862356    -0.00900
C1270       C  0.62768445  0.60415644  0.40871829    -0.00900
C1271       C  0.60890099  0.63718435  0.41247789     0.09000
C1272       C  0.61737895  0.66548937  0.38450294    -0.01100
Br1273     Br  0.59780010  0.71354180  0.38961812     0.00300
Br1274     Br  0.64284036  0.69412291  0.31281018     0.00300
Br1275     Br  0.61839410  0.23571819  0.44320902     0.00300
Br1276     Br  0.70475813  0.24140568  0.37219980     0.00300
C1277       C  0.83012507  0.55665875  0.35725465    -0.00800
C1278       C  0.80930080  0.51156410  0.35175667     0.08900
C1279       C  0.81378483  0.48722661  0.38019890    -0.00900
C1280       C  0.83278091  0.50617434  0.41366774    -0.00900
C1281       C  0.84645021  0.54962237  0.41942595     0.09000
C1282       C  0.84283188  0.57418076  0.39150084    -0.01100
Br1283     Br  0.84304570  0.62847818  0.40176052     0.00300
Br1284     Br  0.83868106  0.59436754  0.31867662     0.00300
Br1285     Br  0.83166706  0.47099897  0.45273104     0.00300
Br1286     Br  0.79026717  0.42703412  0.37474864     0.00300
C1287       C  0.77931351  0.48500917  0.11070039    -0.00800
C1288       C  0.79394514  0.50567710  0.14379051     0.08900
C1289       C  0.84207528  0.55041117  0.14543717    -0.00900
C1290       C  0.86703597  0.57300309  0.11395398    -0.00900
C1291       C  0.83273223  0.55559597  0.08195772     0.09000
C1292       C  0.79098396  0.50979626  0.08024486    -0.01100
Br1293     Br  0.75892729  0.47965186  0.03640618     0.00300
Br1294     Br  0.75867869  0.42491962  0.10757487     0.00300
Br1295     Br  0.96121146  0.61336550  0.11264908     0.00300
Br1296     Br  0.87937356  0.58074515  0.18913998     0.00300
C1297       C  0.82490798  0.45130792  0.78274533     0.46500
H1298       H  0.82154213  0.44933743  0.81170748    -0.02500
C1299       C  0.82992151  0.45395648  0.71582062     0.46600
H1300       H  0.83288244  0.45591929  0.68718310    -0.02500
C1301       C  0.78917326  0.40305804  0.76467382    -0.16200
C1302       C  0.78769827  0.47783427  0.76714523    -0.16000
C1303       C  0.90236311  0.47453325  0.76975190    -0.16300
C1304       C  0.79110615  0.40447372  0.72951384    -0.16300
C1305       C  0.78947072  0.47840811  0.73071403    -0.15900
C1306       C  0.90456594  0.47585238  0.73238208    -0.16200
C1307       C  0.65704905  0.56604076  0.71397986     0.46500
H1308       H  0.65317535  0.56369691  0.68526926    -0.02500
C1309       C  0.66043346  0.56785254  0.78061268     0.46600
H1310       H  0.65903957  0.56723316  0.80921651    -0.02500
C1311       C  0.69436972  0.61595438  0.72814833    -0.16200
C1312       C  0.58397064  0.54273572  0.73139423    -0.16000
C1313       C  0.69536899  0.54076174  0.72933924    -0.16300
C1314       C  0.69590589  0.61668363  0.76457529    -0.16300
C1315       C  0.58595463  0.54332735  0.76623834    -0.15900
C1316       C  0.69702674  0.54166650  0.76458862    -0.16200
N1317       N  0.75170211  0.49338795  0.70646156    -0.02400
C1318       C  0.74477777  0.47997710  0.67228019     0.00200
C1319       C  0.68142550  0.46935470  0.65962598    -0.22700
C1320       C  0.65221466  0.48379467  0.68359259    -0.22900
C1321       C  0.69713026  0.50192703  0.71076126     0.00100
H1322       H  0.66562343  0.46347161  0.63250093     0.13800
H1323       H  0.60988281  0.48924925  0.67787822     0.13900
N1324       N  0.75188298  0.49608300  0.78997063    -0.02400
C1325       C  0.74061544  0.48367650  0.82409496     0.00200
C1326       C  0.67423341  0.47106241  0.83321327    -0.22700
C1327       C  0.64679037  0.48263188  0.80689043    -0.22900
C1328       C  0.69656174  0.50230869  0.78236198     0.00100
H1329       H  0.65427359  0.46711795  0.85947119     0.13800
H1330       H  0.60236933  0.48674549  0.80986309     0.13900
N1331       N  0.72630593  0.65655185  0.78761295    -0.02400
C1332       C  0.73238048  0.64854158  0.82210102     0.00200
C1333       C  0.78527822  0.34274865  0.83583006    -0.22700
C1334       C  0.82197439  0.36935029  0.80979451    -0.22900
C1335       C  0.78057308  0.36122902  0.78183917     0.00100
H1336       H  0.79757059  0.35074098  0.86321919     0.13800
H1337       H  0.86594761  0.39967110  0.81371944     0.13900
N1338       N  0.72117995  0.65489000  0.70396577    -0.03300
C1339       C  0.71805381  0.64596194  0.66855739     0.00200
C1340       C  0.77238124  0.34312860  0.65195517    -0.22700
C1341       C  0.80930703  0.37415004  0.67525651    -0.22900
C1342       C  0.77697654  0.36370586  0.70688363     0.00100
H1343       H  0.77826588  0.34730699  0.62382556     0.13800
H1344       H  0.84792920  0.40530742  0.66724788     0.13900
N1345       N  0.96785540  0.49456571  0.70977750    -0.02400
C1346       C  0.96640923  0.50171912  0.67404275     0.00200
C1347       C  0.49580421  0.55009531  0.66467456    -0.22700
C1348       C  0.52748745  0.57030744  0.69429069    -0.22900
C1349       C  0.51945727  0.53740692  0.71553646     0.00100
H1350       H  0.51577332  0.56775022  0.64120374     0.13800
H1351       H  0.56792153  0.60346394  0.69610102     0.13900
N1352       N  0.96298986  0.49204174  0.79485645    -0.02400
C1353       C  0.95707433  0.49238766  0.83151093     0.00200
C1354       C  0.46765151  0.54342474  0.82881405    -0.22700
C1355       C  0.51801450  0.56565752  0.80564756    -0.22900
C1356       C  0.52181826  0.53355112  0.78613745     0.00100
H1357       H  0.45066566  0.55884449  0.84805719     0.13800
H1358       H  0.55124995  0.60067813  0.80497445     0.13900
Fe1359     Fe  0.90133735  0.64785366  0.50360945     1.65800
Fe1360     Fe  0.97540941  0.60031154  0.99701889     1.73200
Fe1361     Fe  0.55793790  0.37960124  0.99940783     1.54400
O1362       O  0.52139529  0.40822412  0.96304015    -0.80600
O1363       O  0.54323925  0.61358396  0.53185678    -0.78900
O1364       O  0.88675805  0.34841703  0.96156101    -0.83100
O1365       O  0.91327656  0.36828227  0.53949919    -0.78000
O1366       O  0.60268884  0.36552575  0.95711286    -0.79800
O1367       O  0.91839023  0.56507896  0.53496830    -0.82500
C1368       C  0.97067082  0.39515254  0.55248265     0.98300
C1369       C  0.94040737  0.37319383  0.94459616     1.05700
O1370       O  0.97485487  0.65729369  0.99871558    -1.11500
O1371       O  0.90782287  0.57710849  0.95785887    -0.73900
O1372       O  0.84824951  0.61337994  0.95845834    -0.77400
O1373       O  0.50209709  0.39302588  0.53731357    -0.78100
C1374       C  0.86428897  0.58570577  0.94488938     0.97200
O1375       O  0.87449344  0.60918433  0.54752344    -0.76100
O1376       O  0.57012826  0.61628915  0.96480228    -0.81200
C1377       C  0.58299405  0.64950655  0.54636738     0.99800
C1378       C  0.61201857  0.65242655  0.95172056     1.05700
O1379       O  0.57527924  0.34541238  0.53862363    -0.76900
C1380       C  0.88308588  0.57644014  0.55410595     1.04000
C1381       C  0.96371729  0.42298522  0.85184956    -0.00800
C1382       C  0.94356765  0.45583520  0.85796764     0.08900
C1383       C  0.92032329  0.45774344  0.89287978    -0.00900
C1384       C  0.91003695  0.42628345  0.91835593    -0.00900
C1385       C  0.93521650  0.39688640  0.91306403     0.09000
C1386       C  0.95909591  0.39372716  0.87900762    -0.01100
Br1387     Br  0.97592880  0.34550420  0.86716589     0.00300
Br1388     Br  0.99600242  0.41629850  0.80608659     0.00300
Br1389     Br  0.86513687  0.42567206  0.96256700     0.00300
Br1390     Br  0.91744643  0.50741642  0.91268640     0.00300
C1391       C  0.45933826  0.48395274  0.60316294    -0.00800
C1392       C  0.97425090  0.47390724  0.64394611     0.08900
C1393       C  0.96341555  0.43036147  0.64833138    -0.00900
C1394       C  0.95082854  0.40307690  0.61804652    -0.00900
C1395       C  0.97540283  0.42137071  0.58492620     0.09000
C1396       C  0.45909624  0.45573422  0.57581712    -0.01100
Br1397     Br  0.46741205  0.47259344  0.52681726     0.00300
Br1398     Br  0.45861371  0.53417944  0.58569830     0.00300
Br1399     Br  0.89562555  0.34216912  0.62145994     0.00300
Br1400     Br  0.96488823  0.40668751  0.69374054     0.00300
C1401       C  0.62471947  0.32471835  0.64447673    -0.00800
C1402       C  0.65896140  0.63240522  0.64520750     0.08900
C1403       C  0.65669630  0.60668361  0.61549029    -0.00900
C1404       C  0.63508879  0.61379425  0.58287726    -0.00900
C1405       C  0.61462422  0.64642934  0.57942364     0.09000
C1406       C  0.60053923  0.33095002  0.61234046    -0.01100
Br1407     Br  0.57472239  0.37653013  0.60940086     0.00300
Br1408     Br  0.62365258  0.35866256  0.68515769     0.00300
Br1409     Br  0.64115617  0.58172127  0.54220918     0.00300
Br1410     Br  0.69687195  0.56815097  0.61752719     0.00300
C1411       C  0.65585335  0.66777153  0.85582353    -0.00800
C1412       C  0.67976997  0.63734224  0.84960627     0.08900
C1413       C  0.68207352  0.61223376  0.87801547    -0.00900
C1414       C  0.66620283  0.61965244  0.91224369    -0.00900
C1415       C  0.64592752  0.65175291  0.91851970     0.09000
C1416       C  0.64537591  0.67775161  0.89050347    -0.01100
Br1417     Br  0.64367790  0.73199449  0.90041946     0.00300
Br1418     Br  0.64501039  0.69932216  0.81721964     0.00300
Br1419     Br  0.67005681  0.27314178  0.95096959     0.00300
Br1420     Br  0.65873969  0.22588833  0.87417814     0.00300
C1421       C  0.84307842  0.54999433  0.84949326    -0.00800
C1422       C  0.79084153  0.50630827  0.85240618     0.08900
C1423       C  0.77089751  0.48996595  0.88635520    -0.00900
C1424       C  0.78121383  0.51875823  0.91437034    -0.00900
C1425       C  0.83364841  0.56195215  0.91214918     0.09000
C1426       C  0.87094138  0.57417281  0.88039913    -0.01100
Br1427     Br  0.96684185  0.60878186  0.88115121     0.00300
Br1428     Br  0.87806929  0.57875235  0.80544055     0.00300
Br1429     Br  0.72557316  0.49768332  0.95507960     0.00300
Br1430     Br  0.74939612  0.43099697  0.89544789     0.00300
C1431       C  0.79014670  0.48023585  0.61302897    -0.00800
C1432       C  0.79978203  0.50071164  0.64625830     0.08900
C1433       C  0.84741479  0.54558898  0.64936915    -0.00900
C1434       C  0.87860624  0.56845337  0.61901064    -0.00900
C1435       C  0.85294682  0.55066232  0.58570540     0.09000
C1436       C  0.80930193  0.50555627  0.58276274    -0.01100
Br1437     Br  0.77444397  0.47851062  0.53790155     0.00300
Br1438     Br  0.74989025  0.41808776  0.60891966     0.00300
Br1439     Br  0.96689816  0.61604756  0.62340074     0.00300
Br1440     Br  0.87070663  0.57808871  0.69336315     0.00300
C1441       C  0.83197012  0.78574455  0.28619175     0.46500
H1442       H  0.83102919  0.78483753  0.31505198    -0.02500
C1443       C  0.83304302  0.78631686  0.21926965     0.46600
H1444       H  0.83340956  0.78668029  0.19043856    -0.02500
C1445       C  0.79648494  0.73673093  0.26973456    -0.16200
C1446       C  0.79233746  0.81105903  0.27075321    -0.16000
C1447       C  0.90861483  0.80928487  0.27190391    -0.16300
C1448       C  0.79633474  0.73715418  0.23457971    -0.16300
C1449       C  0.79318822  0.81106901  0.23434827    -0.15900
C1450       C  0.90879591  0.80997307  0.23450973    -0.16200
C1451       C  0.66425060  0.89942134  0.21568899     0.46500
H1452       H  0.66303732  0.89687819  0.18689383    -0.02500
C1453       C  0.66363870  0.90253660  0.28232669     0.46600
H1454       H  0.66079389  0.90260049  0.31102855    -0.02500
C1455       C  0.69888815  0.94958328  0.22996803    -0.16200
C1456       C  0.59026299  0.87600892  0.23133318    -0.16000
C1457       C  0.70111761  0.87408095  0.23298558    -0.16300
C1458       C  0.69982710  0.95095932  0.26627716    -0.16300
C1459       C  0.59008373  0.87815761  0.26611368    -0.15900
C1460       C  0.70121846  0.87600861  0.26826325    -0.16200
N1461       N  0.75667152  0.82729094  0.21062298    -0.02400
C1462       C  0.74886199  0.81466650  0.17624956     0.00200
C1463       C  0.68445180  0.80301937  0.16475120    -0.22700
C1464       C  0.65360730  0.81390277  0.19048863    -0.22900
C1465       C  0.70062822  0.83351500  0.21663431     0.00100
H1466       H  0.66839867  0.79915070  0.13772781     0.13800
H1467       H  0.60906404  0.81755051  0.18632895     0.13900
N1468       N  0.75330689  0.82670309  0.29406872    -0.02400
C1469       C  0.74322093  0.81319131  0.32798155     0.00200
C1470       C  0.68100541  0.80617567  0.34010492    -0.22700
C1471       C  0.65696563  0.82345987  0.31638500    -0.22900
C1472       C  0.70217217  0.83857481  0.28908972     0.00100
H1473       H  0.66387387  0.80120258  0.36703836     0.13800
H1474       H  0.61697111  0.83142514  0.32212391     0.13900
N1475       N  0.72834132  0.99107371  0.28927765    -0.02400
C1476       C  0.73151482  0.98377046  0.32414273     0.00200
C1477       C  0.79465087  0.67553283  0.34237293    -0.22700
C1478       C  0.82924371  0.70514807  0.31750263    -0.22900
C1479       C  0.78939140  0.69552755  0.28848587     0.00100
H1480       H  0.80517214  0.68207094  0.36999286     0.13800
H1481       H  0.87028453  0.73654471  0.32310708     0.13900
N1482       N  0.72131387  0.98840933  0.20629508    -0.03300
C1483       C  0.71975996  0.97975387  0.17095453     0.00200
C1484       C  0.78485831  0.67483852  0.15952580    -0.22700
C1485       C  0.82058349  0.70575570  0.18316974    -0.22900
C1486       C  0.78517171  0.69602228  0.21380577     0.00100
H1487       H  0.79172611  0.67960956  0.13150529     0.13800
H1488       H  0.85865221  0.73723707  0.17552608     0.13900
N1489       N  0.97079025  0.82969736  0.21081780    -0.02400
C1490       C  0.96650398  0.83685425  0.17535461     0.00200
C1491       C  0.49726887  0.87828499  0.16265865    -0.22700
C1492       C  0.53227988  0.90029479  0.19103763    -0.22900
C1493       C  0.52636443  0.86880319  0.21325826     0.00100
H1494       H  0.51368098  0.89316713  0.13753667     0.13800
H1495       H  0.57125450  0.93370216  0.19211206     0.13900
N1496       N  0.97069361  0.82737366  0.29595426    -0.02400
C1497       C  0.96684265  0.82915874  0.33260593     0.00200
C1498       C  0.49931360  0.88390814  0.33438118    -0.22700
C1499       C  0.53310531  0.90494918  0.30563319    -0.22900
C1500       C  0.52598350  0.87288205  0.28299701     0.00100
H1501       H  0.51454216  0.90163780  0.35839439     0.13800
H1502       H  0.57239281  0.93830013  0.30465539     0.13900
Fe1503     Fe  0.88687947  0.97980860  0.00231425     1.65800
Fe1504     Fe  0.97846526  0.92869830  0.49990604     1.73200
Fe1505     Fe  0.55200462  0.70280083  0.49246393     1.54400
O1506       O  0.51889931  0.72354966  0.44874946    -0.80600
O1507       O  0.54440852  0.94666810  0.03450754    -0.78900
O1508       O  0.92410325  0.68683867  0.45934106    -0.83100
O1509       O  0.91902896  0.70374799  0.04237221    -0.78000
O1510       O  0.59394092  0.67720639  0.45811726    -0.79800
O1511       O  0.91034649  0.89841569  0.03614999    -0.82500
C1512       C  0.97646747  0.73169009  0.05443051     0.98300
C1513       C  0.97787983  0.71533784  0.44454130     1.05700
O1514       O  0.97353303  0.98395903  0.49821043    -1.11500
O1515       O  0.89802021  0.89537920  0.46753511    -0.73900
O1516       O  0.84870698  0.93686392  0.45823060    -0.77400
O1517       O  0.54117927  0.73702740  0.03825922    -0.78100
C1518       C  0.85837465  0.90448080  0.45067556     0.97200
O1519       O  0.86098863  0.93990861  0.04641431    -0.76100
O1520       O  0.53953680  0.94797688  0.45620479    -0.81200
C1521       C  0.58403991  0.98337878  0.04804110     0.99800
C1522       C  0.58760201  0.98341595  0.44514945     1.05700
O1523       O  0.61455956  0.69041855  0.04085506    -0.76900
C1524       C  0.87299182  0.90873031  0.05442551     1.04000
C1525       C  0.98087894  0.76121959  0.35142227    -0.00800
C1526       C  0.96392722  0.79520233  0.35969578     0.08900
C1527       C  0.95042444  0.79916917  0.39619416    -0.00900
C1528       C  0.95064401  0.77076737  0.42203836    -0.00900
C1529       C  0.97035493  0.73932475  0.41388524     0.09000
C1530       C  0.98174358  0.73270619  0.37801363    -0.01100
Br1531     Br  0.98924875  0.68155027  0.36359851     0.00300
Br1532     Br  0.00080115  0.75159347  0.30360416     0.00300
Br1533     Br  0.92346618  0.77463700  0.47036921     0.00300
Br1534     Br  0.93945519  0.84548077  0.41614788     0.00300
C1535       C  0.47829197  0.81827038  0.10486832    -0.00800
C1536       C  0.97623638  0.81021223  0.14503078     0.08900
C1537       C  0.97079969  0.76806801  0.14980021    -0.00900
C1538       C  0.95962119  0.74066744  0.11992972    -0.00900
C1539       C  0.98107102  0.75845763  0.08644089     0.09000
C1540       C  0.49748651  0.79842837  0.07804589    -0.01100
Br1541     Br  0.52378142  0.82495305  0.03234780     0.00300
Br1542     Br  0.43268908  0.84690409  0.08697542     0.00300
Br1543     Br  0.91000573  0.67985194  0.12476114     0.00300
Br1544     Br  0.97868547  0.74610848  0.19509454     0.00300
C1545       C  0.64094992  0.66220481  0.14993619    -0.00800
C1546       C  0.66221116  0.96700398  0.14639193     0.08900
C1547       C  0.66301143  0.94317941  0.11599576    -0.00900
C1548       C  0.64421503  0.95221821  0.08329201    -0.00900
C1549       C  0.61826915  0.98201757  0.08075157     0.09000
C1550       C  0.62389193  0.67177139  0.11714495    -0.01100
Br1551     Br  0.59335299  0.71496192  0.11357333     0.00300
Br1552     Br  0.63544491  0.69420629  0.19083296     0.00300
Br1553     Br  0.66583279  0.93000492  0.04113065     0.00300
Br1554     Br  0.70293615  0.90452834  0.11781950     0.00300
C1555       C  0.64436668  0.99831066  0.35122282    -0.00800
C1556       C  0.67501280  0.97095623  0.34885547     0.08900
C1557       C  0.67336250  0.94571832  0.37804510    -0.00900
C1558       C  0.64491285  0.94970445  0.40975931    -0.00900
C1559       C  0.62133399  0.98069644  0.41297146     0.09000
C1560       C  0.62209152  0.00532959  0.38378223    -0.01100
Br1561     Br  0.59789019  0.05155187  0.38855311     0.00300
Br1562     Br  0.63838318  0.03008455  0.31110071     0.00300
Br1563     Br  0.61118299  0.56260363  0.44598702     0.00300
Br1564     Br  0.68861743  0.55822050  0.37617373     0.00300
C1565       C  0.84283409  0.87715240  0.35461794    -0.00800
C1566       C  0.79693048  0.83193692  0.35472094     0.08900
C1567       C  0.78305825  0.81015214  0.38685715    -0.00900
C1568       C  0.79156345  0.83369085  0.41818277    -0.00900
C1569       C  0.83123617  0.87967594  0.41798080     0.09000
C1570       C  0.86586043  0.89890864  0.38673191    -0.01100
Br1571     Br  0.95949193  0.94023821  0.38958529     0.00300
Br1572     Br  0.87707512  0.91011963  0.31210484     0.00300
Br1573     Br  0.76057595  0.80193178  0.46089456     0.00300
Br1574     Br  0.76801273  0.75121702  0.38757020     0.00300
C1575       C  0.79401049  0.81447698  0.11715071    -0.00800
C1576       C  0.80226148  0.83624694  0.14958239     0.08900
C1577       C  0.84494900  0.88190857  0.15094093    -0.00900
C1578       C  0.87292793  0.90385827  0.11973106    -0.00900
C1579       C  0.84587897  0.88393597  0.08705540     0.09000
C1580       C  0.80822955  0.83788954  0.08585653    -0.01100
Br1581     Br  0.77880586  0.80639370  0.04205908     0.00300
Br1582     Br  0.77040902  0.75402848  0.11617455     0.00300
Br1583     Br  0.96291774  0.95029432  0.12238052     0.00300
Br1584     Br  0.86776358  0.91583911  0.19407329     0.00300
C1585       C  0.83182077  0.78576667  0.77911842     0.46500
H1586       H  0.83057866  0.78500374  0.80761219    -0.02500
C1587       C  0.83290627  0.78656310  0.71242127     0.46600
H1588       H  0.83335503  0.78719381  0.68357480    -0.02500
C1589       C  0.79418229  0.73695055  0.76272471    -0.16200
C1590       C  0.79447662  0.81205141  0.76464891    -0.16000
C1591       C  0.90820145  0.80882117  0.76482673    -0.16300
C1592       C  0.79464397  0.73732218  0.72753750    -0.16300
C1593       C  0.79351077  0.81156744  0.72824206    -0.15900
C1594       C  0.90905443  0.80945259  0.72780660    -0.16200
C1595       C  0.66114018  0.89827108  0.71300868     0.46500
H1596       H  0.65914333  0.89663327  0.68414959    -0.02500
C1597       C  0.66206148  0.89880741  0.77950116     0.46600
H1598       H  0.66037110  0.89797924  0.80763942    -0.02500
C1599       C  0.69542405  0.94793618  0.72843025    -0.16200
C1600       C  0.58756271  0.87308865  0.72938790    -0.16000
C1601       C  0.69999950  0.87353187  0.72872279    -0.16300
C1602       C  0.69603301  0.94790210  0.76477115    -0.16300
C1603       C  0.58820239  0.87354046  0.76417804    -0.15900
C1604       C  0.70093748  0.87412833  0.76393252    -0.16200
N1605       N  0.75539324  0.82727222  0.70519693    -0.02400
C1606       C  0.74595649  0.81398685  0.67117889     0.00200
C1607       C  0.68053578  0.80166771  0.66052459    -0.22700
C1608       C  0.65100093  0.81329477  0.68631112    -0.22900
C1609       C  0.69959441  0.83362801  0.71151776     0.00100
H1610       H  0.66238612  0.79670299  0.63388994     0.13800
H1611       H  0.60562519  0.81623734  0.68286907     0.13900
N1612       N  0.76148707  0.83105372  0.78869980    -0.02400
C1613       C  0.75259917  0.81780392  0.82286341     0.00200
C1614       C  0.68668836  0.80401289  0.83309505    -0.22700
C1615       C  0.65702723  0.81585839  0.80787832    -0.22900
C1616       C  0.70457164  0.83620747  0.78249963     0.00100
H1617       H  0.66854383  0.79925330  0.85967395     0.13800
H1618       H  0.61237420  0.81940324  0.81207521     0.13900
N1619       N  0.72301456  0.98704999  0.78889388    -0.02400
C1620       C  0.72522061  0.97820908  0.82378552     0.00200
C1621       C  0.79615554  0.67475019  0.83413232    -0.22700
C1622       C  0.82829435  0.70445040  0.80908312    -0.22900
C1623       C  0.78531315  0.69570179  0.78160798     0.00100
H1624       H  0.80963187  0.68012210  0.86152897     0.13800
H1625       H  0.86913819  0.73594928  0.81464018     0.13900
N1626       N  0.72008303  0.98768075  0.70555562    -0.03300
C1627       C  0.72079802  0.98019262  0.67019920     0.00200
C1628       C  0.77573970  0.67433381  0.65178707    -0.22700
C1629       C  0.81389595  0.70495942  0.67509542    -0.22900
C1630       C  0.78027642  0.69568641  0.70636589     0.00100
H1631       H  0.78178911  0.67883637  0.62366879     0.13800
H1632       H  0.85392111  0.73581327  0.66724091     0.13900
N1633       N  0.97207141  0.82883826  0.70502661    -0.02400
C1634       C  0.96890470  0.83408583  0.66923981     0.00200
C1635       C  0.49320173  0.87447025  0.66218829    -0.22700
C1636       C  0.52727937  0.89648867  0.69061434    -0.22900
C1637       C  0.52250875  0.86480053  0.71240747     0.00100
H1638       H  0.51118491  0.89008711  0.63763689     0.13800
H1639       H  0.56674479  0.93005198  0.69095264     0.13900
N1640       N  0.96871414  0.82649045  0.78958157    -0.02400
C1641       C  0.95485543  0.83299156  0.82373174     0.00200
C1642       C  0.50018593  0.87086176  0.83635134    -0.22700
C1643       C  0.53070802  0.89450268  0.80796936    -0.22900
C1644       C  0.52382009  0.86465249  0.78310355     0.00100
H1645       H  0.51783602  0.88549438  0.86162808     0.13800
H1646       H  0.56799665  0.92839870  0.80775084     0.13900
Fe1647     Fe  0.88456201  0.98270398  0.49864952     1.65800
Fe1648     Fe  0.98358246  0.92825193  0.99934222     1.73200
Fe1649     Fe  0.57353617  0.70862500  0.99986804     1.54400
O1650       O  0.53888905  0.73023991  0.95665095    -0.80600
O1651       O  0.56819733  0.95977004  0.52997169    -0.78900
O1652       O  0.91654174  0.70676419  0.96131263    -0.83100
O1653       O  0.92982592  0.69935813  0.53936323    -0.78000
O1654       O  0.62017960  0.68865508  0.96370479    -0.79800
O1655       O  0.91904068  0.90944768  0.54234287    -0.82500
C1656       C  0.98544714  0.72803900  0.55212944     0.98300
C1657       C  0.97219947  0.73463385  0.94759585     1.05700
O1658       O  0.97667766  0.98293265  0.99909247    -1.11500
O1659       O  0.91608517  0.90124966  0.96024635    -0.73900
O1660       O  0.84222013  0.92622053  0.96819637    -0.77400
O1661       O  0.52521952  0.73668532  0.52834358    -0.78100
C1662       C  0.86284374  0.90242575  0.95206505     0.97200
O1663       O  0.84603589  0.93564047  0.53807132    -0.76100
O1664       O  0.53283769  0.93975823  0.95762961    -0.81200
C1665       C  0.60014186  0.99524591  0.54674615     0.99800
C1666       C  0.57902015  0.97546534  0.94572955     1.05700
O1667       O  0.59203773  0.68625366  0.53498090    -0.76900
C1668       C  0.86912785  0.91313424  0.55338046     1.04000
C1669       C  0.97182579  0.77082006  0.85215569    -0.00800
C1670       C  0.96834111  0.81070707  0.85579261     0.08900
C1671       C  0.97645615  0.82765012  0.89128524    -0.00900
C1672       C  0.97874712  0.80332301  0.92061325    -0.00900
C1673       C  0.97086480  0.76100174  0.91635805     0.09000
C1674       C  0.96374267  0.74462431  0.88185217    -0.01100
Br1675     Br  0.92772281  0.68366547  0.87499732     0.00300
Br1676     Br  0.99260899  0.75111696  0.80789757     0.00300
Br1677     Br  0.98710055  0.82618299  0.96773416     0.00300
Br1678     Br  0.99273866  0.88559094  0.90279882     0.00300
C1679       C  0.48929649  0.82081100  0.60332298    -0.00800
C1680       C  0.97342843  0.80444841  0.64034563     0.08900
C1681       C  0.97040273  0.76322934  0.64600162    -0.00900
C1682       C  0.96216961  0.73605171  0.61636194    -0.00900
C1683       C  0.98565028  0.75447355  0.58313173     0.09000
C1684       C  0.50882322  0.80058000  0.57699920    -0.01100
Br1685     Br  0.56222863  0.83420807  0.53790425     0.00300
Br1686     Br  0.44771791  0.85069019  0.58188477     0.00300
Br1687     Br  0.90099067  0.67569852  0.61896485     0.00300
Br1688     Br  0.97352652  0.74162646  0.69202768     0.00300
C1689       C  0.63230152  0.66197832  0.64236510    -0.00800
C1690       C  0.66475988  0.96947228  0.64529163     0.08900
C1691       C  0.66833764  0.94827699  0.61396307    -0.00900
C1692       C  0.65809484  0.96273897  0.58151224    -0.00900
C1693       C  0.63195850  0.99244191  0.57985298     0.09000
C1694       C  0.61327725  0.67038698  0.60939373    -0.01100
Br1695     Br  0.58596403  0.71546312  0.60561869     0.00300
Br1696     Br  0.62860877  0.69480440  0.68297298     0.00300
Br1697     Br  0.69277848  0.94894807  0.53948152     0.00300
Br1698     Br  0.70362169  0.90714241  0.61497682     0.00300
C1699       C  0.63922658  0.99337854  0.85196901    -0.00800
C1700       C  0.66715546  0.96462275  0.84853999     0.08900
C1701       C  0.65776709  0.93552184  0.87662132    -0.00900
C1702       C  0.63202270  0.94045878  0.90893045    -0.00900
C1703       C  0.61345545  0.97355265  0.91343264     0.09000
C1704       C  0.61715625  0.00000566  0.88482491    -0.01100
Br1705     Br  0.59529535  0.04716737  0.89031134     0.00300
Br1706     Br  0.63133004  0.02445597  0.81193516     0.00300
Br1707     Br  0.67781891  0.58847594  0.95092545     0.00300
Br1708     Br  0.71384768  0.57058045  0.87077689     0.00300
C1709       C  0.81743807  0.88631005  0.85734428    -0.00800
C1710       C  0.80209787  0.84214085  0.85122534     0.08900
C1711       C  0.80723907  0.81812070  0.87970682    -0.00900
C1712       C  0.81968615  0.83595289  0.91376233    -0.00900
C1713       C  0.82916089  0.87854558  0.91984334     0.09000
C1714       C  0.82464930  0.90268357  0.89185562    -0.01100
Br1715     Br  0.81814860  0.95498440  0.90212772     0.00300
Br1716     Br  0.82821335  0.92462194  0.81894845     0.00300
Br1717     Br  0.81655342  0.80032525  0.95283039     0.00300
Br1718     Br  0.80034996  0.76140521  0.87303462     0.00300
C1719       C  0.78236570  0.81760533  0.61051077    -0.00800
C1720       C  0.79887382  0.83533319  0.64444448     0.08900
C1721       C  0.84819937  0.87979025  0.64805403    -0.00900
C1722       C  0.87455943  0.90392633  0.61755072    -0.00900
C1723       C  0.83869482  0.88953748  0.58565400     0.09000
C1724       C  0.78987151  0.84539204  0.58287825    -0.01100
Br1725     Br  0.73321216  0.82267539  0.54274943     0.00300
Br1726     Br  0.75838324  0.75752241  0.60217123     0.00300
Br1727     Br  0.96798500  0.94509272  0.61769435     0.00300
Br1728     Br  0.88242684  0.90913530  0.69259782     0.00300
loop_ 
_geom_bond_atom_site_label_1 
_geom_bond_atom_site_label_2 
_geom_bond_distance 
_geom_bond_site_symmetry_2 
_ccdc_geom_bond_type 
C1            H2   1.100       .  S
C1            C7   1.601       .  S
C1            C6   1.615       .  S
C1            C5   1.613       .  S
C3            H4   1.099       .  S
C3            C9   1.613       .  S
C3            C8   1.610       .  S
C3           C10   1.618       .  S
C5            C8   1.341       .  D
C5           C39   1.537       .  S
C6            C9   1.392       .  D
C6           N28   1.497       .  S
C7           C10   1.420       .  D
C7           N56   1.522       .  S
C8           C46   1.535       .  S
C9           N21   1.516       .  S
C10          N49   1.528       .  S
C11          H12   1.098       .  S
C11          C17   1.610       .  S
C11          C16   1.594       .  S
C11          C15   1.621       .  S
C13          H14   1.076       .  S
C13          C19   1.580       .  S
C13          C18   1.602       .  S
C13          C20   1.594       .  S
C15          C18   1.385       .  D
C15          N42   1.511       .  S
C16          C19   1.328       .  D
C16          C53   1.505       .  S
C17          C20   1.344       .  D
C17          C25   1.533       .  S
C18          N35   1.491       .  S
C19          C60   1.517       .  S
C20          C32   1.521       .  S
N21          C25   1.404       .  A
N21          C22   1.365       .  A
C22          C23   1.378       .  A
C22         C136   1.477       .  S
C23          C24   1.345       .  A
C23          H26   1.081       .  S
C24          C25   1.374       .  A
C24          H27   1.081       .  S
N28          C32   1.388       .  A
N28          C29   1.362       .  A
C29          C30   1.380       .  A
C29         C126   1.479       .  S
C30          C31   1.346       .  A
C30          H33   1.080       .  S
C31          C32   1.367       .  A
C31          H34   1.075       .  S
N35          C36   1.373       .  A
N35         C327   1.390       .  A
C36         C325   1.371       .  A
C36         C116   1.489       .  S
C37          C38   1.344       .  A
C37         C612   1.362   1_545  A
C37          H40   1.083       .  S
C38          C39   1.360       .  A
C38          H41   1.056       .  S
C39         N611   1.398   1_545  A
N42          C43   1.372       .  A
N42         C334   1.417       .  A
C43         C332   1.357       .  A
C43         C106   1.468       .  S
C44          C45   1.333       .  A
C44         C619   1.360   1_545  A
C44          H47   1.079       .  S
C45          C46   1.357       .  A
C45          H48   1.059       .  S
C46         N618   1.400   1_545  A
N49          C50   1.383       .  A
N49         C917   1.384       .  A
C50         C915   1.376       .  A
C50          C96   1.558       .  S
C51          C52   1.339   1_655  A
C51         C914   1.390       .  A
C51          H54   1.069       .  S
C52          C53   1.344       .  A
C52          H55   1.067       .  S
C53         N913   1.377   1_455  A
N56          C57   1.393       .  A
N56         C924   1.375       .  A
C57         C922   1.397       .  A
C57          C86   1.548       .  S
C58          C59   1.339   1_655  A
C58         C921   1.393       .  A
C58          H61   1.063   1_655  S
C59          C60   1.343       .  A
C59          H62   1.072       .  S
C60         N920   1.382   1_455  A
Fe63         O79   2.100       .  S
Fe63        O357   2.121       .  S
Fe63        O220   2.107   1_554  S
Fe63        O500   2.122   1_554  S
Fe63        O218   1.979   1_554  S
Fe64         O75   2.020       .  S
Fe64       O1075   2.074       .  S
Fe64        O215   2.019       .  S
Fe64        O944   2.049       .  S
Fe64         O74   1.967       .  S
Fe65         O70   2.057       .  S
Fe65         O66   2.110       .  S
Fe65        O227   2.078       .  S
Fe65        O221   2.069       .  S
Fe65       O1514   1.967   1_445  S
O66         C937   1.277   1_455  A
O67       Fe1072   2.062   1_454  S
O67          C81   1.271       .  A
O68        Fe783   2.148   1_545  S
O68          C73   1.285       .  A
O69        Fe639   2.087   1_544  S
O69          C72   1.271       .  A
O70         C658   1.268   1_545  A
O71        Fe208   2.010   1_554  S
O71          C84   1.253       .  A
C72          C99   1.493       .  S
C72         O941   1.266       .  A
C73          C89   1.542       .  S
C73         O930   1.279       .  A
O74        Fe207   1.984       .  S
O74       Fe1217   1.978       .  S
O75          C78   1.259       .  A
O76        Fe207   2.066       .  S
O76          C78   1.266       .  A
O77        Fe209   2.041   1_554  S
O77         C936   1.260   1_455  A
C78         C129   1.468       .  S
O79          C84   1.276       .  A
O80        Fe928   2.028   1_455  S
O80          C82   1.262       .  A
C81         C109   1.466       .  S
C81         O371   1.264       .  A
C82         C119   1.476       .  S
C82         O358   1.269       .  A
O83        Fe209   2.090   1_554  S
O83         C657   1.275   1_545  A
C84         C139   1.468       .  S
C85          C86   1.416       .  A
C85          C90   1.420       .  A
C85         Br92   1.956       .  S
C86          C87   1.437       .  A
C87          C88   1.426       .  A
C87         Br94   1.896       .  S
C88          C89   1.402       .  A
C88         Br93   1.931       .  S
C89          C90   1.423       .  A
C90         Br91   1.869       .  S
C95         C100   1.396   1_655  A
C95         C960   1.436       .  A
C95        Br102   1.875       .  S
C96          C97   1.416       .  A
C96         C959   1.454       .  A
C97          C98   1.414       .  A
C97        Br104   1.940       .  S
C98          C99   1.401       .  A
C98        Br103   1.873       .  S
C99         C964   1.384       .  A
C100        C963   1.381   1_455  A
C100       Br101   1.927       .  S
C105        C110   1.410   1_565  A
C105        C682   1.418       .  A
C105       Br112   1.932   1_565  S
C106        C107   1.419       .  A
C106        C393   1.415       .  A
C107        C108   1.401       .  A
C107       Br114   1.930       .  S
C108        C109   1.398       .  A
C108       Br113   1.929       .  S
C109        C398   1.408       .  A
C110        C685   1.404   1_545  A
C110       Br111   1.921       .  S
C115        C116   1.413       .  A
C115        C120   1.407       .  A
C115       Br122   1.934       .  S
C116        C117   1.418       .  A
C117        C118   1.398       .  A
C117       Br412   1.922       .  S
C118        C119   1.407       .  A
C118       Br411   1.937       .  S
C119        C120   1.412       .  A
C120       Br121   1.927       .  S
Br123       C694   1.929       .  S
Br124       C693   1.923       .  S
C125        C126   1.411       .  A
C125        C130   1.404       .  A
C125       Br132   1.930       .  S
C126        C127   1.404       .  A
C127        C128   1.396       .  A
C127       Br134   1.895       .  S
C128        C129   1.400       .  A
C128       Br133   1.916       .  S
C129        C130   1.400       .  A
C130       Br131   1.901       .  S
C135        C136   1.408       .  A
C135        C140   1.402       .  A
C135       Br142   1.901       .  S
C136        C137   1.407       .  A
C137        C138   1.400       .  A
C137       Br144   1.929       .  S
C138        C139   1.397       .  A
C138       Br143   1.905       .  S
C139        C140   1.405       .  A
C140       Br141   1.914       .  S
C145        H146   1.100       .  S
C145        C151   1.605       .  S
C145        C150   1.618       .  S
C145        C149   1.611       .  S
C147        H148   1.100       .  S
C147        C153   1.614       .  S
C147        C152   1.608       .  S
C147        C154   1.613       .  S
C149        C152   1.342       .  D
C149        C183   1.536       .  S
C150        C153   1.386       .  D
C150        N172   1.501       .  S
C151        C154   1.425       .  D
C151        N200   1.527       .  S
C152        C190   1.533       .  S
C153        N165   1.509       .  S
C154        N193   1.528       .  S
C155        H156   1.100       .  S
C155        C161   1.609       .  S
C155        C160   1.587       .  S
C155        C159   1.609       .  S
C157        H158   1.094       .  S
C157        C163   1.580       .  S
C157        C162   1.610       .  S
C157        C164   1.596       .  S
C159        C162   1.387       .  D
C159        N186   1.505       .  S
C160        C163   1.327       .  D
C160        C197   1.501       .  S
C161        C164   1.344       .  D
C161        C169   1.524       .  S
C162        N179   1.494       .  S
C163        C204   1.512       .  S
C164        C176   1.526       .  S
N165        C169   1.399       .  A
N165        C166   1.360       .  A
C166        C167   1.380       .  A
C166        C280   1.470       .  S
C167        C168   1.340       .  A
C167        H170   1.079       .  S
C168        C169   1.372       .  A
C168        H171   1.080       .  S
N172        C176   1.394       .  A
N172        C173   1.356       .  A
C173        C174   1.379       .  A
C173        C270   1.473       .  S
C174        C175   1.345       .  A
C174        H177   1.080       .  S
C175        C176   1.373       .  A
C175        H178   1.079       .  S
N179        C471   1.399       .  A
N179        C180   1.371       .  A
C180        C469   1.354       .  A
C180        C260   1.482       .  S
C181        C756   1.368   1_545  A
C181        C182   1.340       .  A
C181        H184   1.084       .  S
C182        C183   1.360       .  A
C182        H185   1.053       .  S
C183        N755   1.398   1_545  A
N186        C478   1.403       .  A
N186        C187   1.375       .  A
C187        C476   1.363       .  A
C187        C250   1.484       .  S
C188        C763   1.359   1_545  A
C188        C189   1.335       .  A
C188        H191   1.080       .  S
C189        C190   1.359       .  A
C189        H192   1.061       .  S
C190        N762   1.399   1_545  A
N193       C1061   1.377       .  A
N193        C194   1.390       .  A
C194       C1059   1.393       .  A
C194        C240   1.542       .  S
C195       C1058   1.392       .  A
C195        C196   1.337   1_655  A
C195        H198   1.065   1_655  S
C196        C197   1.349       .  A
C196        H199   1.074       .  S
C197       N1057   1.379   1_455  A
N200       C1068   1.378       .  A
N200        C201   1.398       .  A
C201       C1066   1.389       .  A
C201        C230   1.550       .  S
C202       C1065   1.396       .  A
C202        C203   1.337   1_655  A
C202        H205   1.069   1_655  S
C203        C204   1.348       .  A
C203        H206   1.075       .  S
C204       N1064   1.382   1_455  A
Fe207       O223   2.059       .  S
Fe207       O501   2.102       .  S
Fe207       O356   2.090       .  S
Fe208       O931   2.030   1_556  S
Fe208       O219   2.002       .  S
Fe208      O1088   1.998       .  S
Fe208       O218   1.976       .  S
Fe209       O214   2.029       .  S
Fe209       O210   2.118       .  S
Fe209      O1658   1.978   1_445  S
O210       C1081   1.280   1_455  A
O211       Fe928   2.028   1_455  S
O211        C225   1.259       .  A
O212       Fe639   2.114   1_545  S
O212        C217   1.278       .  A
O213       Fe783   2.095   1_545  S
O213        C216   1.275       .  A
O214        C802   1.257   1_545  A
O215        C228   1.260       .  A
C216        C243   1.495       .  S
C216       O1085   1.269       .  A
C217        C233   1.524       .  S
C217       O1074   1.280       .  A
O218      Fe1361   1.982       .  S
O219        C222   1.255       .  A
O220        C222   1.275       .  A
O221       C1080   1.270   1_455  A
C222        C273   1.472       .  S
O223        C228   1.267       .  A
O224      Fe1072   2.047   1_455  S
O224        C226   1.260       .  A
C225        C253   1.482       .  S
C225        O515   1.271       .  A
C226        C263   1.480       .  S
C226        O502   1.258       .  A
O227        C801   1.270   1_545  A
C228        C283   1.452       .  S
C229        C230   1.419       .  A
C229        C234   1.424       .  A
C229       Br236   1.956       .  S
C230        C231   1.444       .  A
C231        C232   1.411       .  A
C231       Br238   1.888       .  S
C232        C233   1.389       .  A
C232       Br237   1.948       .  S
C233        C234   1.426       .  A
C234       Br235   1.880       .  S
C239       C1104   1.441       .  A
C239        C244   1.396       .  A
C239       Br246   1.887       .  S
C240       C1103   1.436       .  A
C240        C241   1.416       .  A
C241        C242   1.419       .  A
C241       Br248   1.938       .  S
C242        C243   1.409       .  A
C242       Br247   1.870       .  S
C243       C1108   1.383       .  A
C244       C1107   1.383       .  A
C244       Br245   1.927   1_655  S
C249        C826   1.415       .  A
C249        C254   1.408   1_565  A
C249       Br256   1.934   1_565  S
C250        C537   1.414       .  A
C250        C251   1.417       .  A
C251        C252   1.405       .  A
C251       Br258   1.927       .  S
C252        C253   1.404       .  A
C252       Br257   1.925       .  S
C253        C542   1.409       .  A
C254        C829   1.410   1_545  A
C254       Br255   1.924       .  S
C259        C260   1.409       .  A
C259        C264   1.401       .  A
C259       Br266   1.930       .  S
C260        C261   1.418       .  A
C261        C262   1.406       .  A
C261       Br556   1.925       .  S
C262        C263   1.411       .  A
C262       Br555   1.934       .  S
C263        C264   1.412       .  A
C264       Br265   1.935       .  S
Br267       C838   1.930       .  S
Br268       C837   1.924       .  S
C269        C270   1.407       .  A
C269        C274   1.395       .  A
C269       Br276   1.931       .  S
C270        C271   1.399       .  A
C271        C272   1.398       .  A
C271       Br278   1.908       .  S
C272        C273   1.406       .  A
C272       Br277   1.906       .  S
C273        C274   1.412       .  A
C274       Br275   1.894       .  S
C279        C280   1.403       .  A
C279        C284   1.395       .  A
C279       Br286   1.895       .  S
C280        C281   1.406       .  A
C281        C282   1.391       .  A
C281       Br288   1.928       .  S
C282        C283   1.402       .  A
C282       Br287   1.898       .  S
C283        C284   1.401       .  A
C284       Br285   1.913       .  S
C289        H290   1.104       .  S
C289        C295   1.611       .  S
C289        C294   1.633       .  S
C289        C293   1.619       .  S
C291        H292   1.093       .  S
C291        C297   1.596       .  S
C291        C296   1.609       .  S
C291        C298   1.606       .  S
C293        C296   1.345       .  D
C293        C327   1.531       .  S
C294        C297   1.390       .  D
C294        N316   1.506       .  S
C295        C298   1.419       .  D
C295        N344   1.535       .  S
C296        C334   1.543       .  S
C297        N309   1.510       .  S
C298        N337   1.515       .  S
C299        H300   1.098       .  S
C299        C305   1.603       .  S
C299        C304   1.585       .  S
C299        C303   1.609       .  S
C301        H302   1.096       .  S
C301        C307   1.577       .  S
C301        C306   1.607       .  S
C301        C308   1.600       .  S
C303        C306   1.387       .  D
C303        N330   1.504       .  S
C304        C307   1.329       .  D
C304        C341   1.511       .  S
C305        C308   1.345       .  D
C305        C313   1.519       .  S
C306        N323   1.490       .  S
C307        C348   1.507       .  S
C308        C320   1.528       .  S
N309        C313   1.391       .  A
N309        C310   1.365       .  A
C310        C311   1.384       .  A
C310        C424   1.488       .  S
C311        C312   1.347       .  A
C311        H314   1.081       .  S
C312        C313   1.372       .  A
C312        H315   1.079       .  S
N316        C320   1.399       .  A
N316        C317   1.360       .  A
C317        C318   1.381       .  A
C317        C414   1.479       .  S
C318        C319   1.341       .  A
C318        H321   1.079       .  S
C319        C320   1.369       .  A
C319        H322   1.079       .  S
N323        C615   1.391       .  A
N323        C324   1.366       .  A
C324        C613   1.368       .  A
C324        C404   1.481       .  S
C325        C326   1.345       .  A
C325        H328   1.078       .  S
C326        C327   1.360       .  A
C326        H329   1.058       .  S
N330        C622   1.405       .  A
N330        C331   1.370       .  A
C331        C620   1.361       .  A
C331        C394   1.474       .  S
C332        C333   1.324       .  A
C332        H335   1.085       .  S
C333        C334   1.370       .  A
C333        H336   1.062       .  S
N337       C1205   1.371       .  A
N337        C338   1.384       .  A
C338       C1203   1.389       .  A
C338        C384   1.529       .  S
C339       C1202   1.389   1_455  A
C339        C340   1.341       .  A
C339        H342   1.070       .  S
C340        C341   1.348       .  A
C340        H343   1.070       .  S
C341       N1201   1.379   1_455  A
N344       C1212   1.393       .  A
N344        C345   1.400       .  A
C345       C1210   1.391       .  A
C345        C374   1.550       .  S
C346       C1209   1.387       .  A
C346        C347   1.354   1_655  A
C346        H349   1.071       .  S
C347        C348   1.365       .  A
C347        H350   1.080       .  S
C348       N1208   1.380   1_455  A
Fe351       O367   2.055       .  S
Fe351       O645   2.077       .  S
Fe351       O508   2.068   1_554  S
Fe351       O788   2.081   1_554  S
Fe351       O506   1.972       .  S
Fe352      O1363   2.023       .  S
Fe352       O503   1.996       .  S
Fe352       O363   2.028       .  S
Fe352      O1232   2.022       .  S
Fe352       O362   1.965       .  S
Fe353       O515   2.091       .  S
Fe353       O358   2.070       .  S
Fe353       O509   2.052       .  S
Fe353       O354   2.108       .  S
Fe353       O938   1.980   1_455  S
O354       C1225   1.275   1_455  A
O355      Fe1360   2.027   1_454  S
O355        C369   1.261       .  A
O356        C361   1.278       .  A
O357        C360   1.278       .  A
O359       Fe496   2.045       .  S
O359        C372   1.263       .  A
C360        C387   1.502       .  S
C360       O1229   1.268       .  A
C361        C377   1.504       .  S
C361       O1218   1.272       .  A
O362       Fe495   1.970       .  S
O362      Fe1505   1.979       .  S
O363        C366   1.257       .  A
O364       Fe495   2.074       .  S
O364        C366   1.266       .  A
O365       Fe497   2.073   1_554  S
O365       C1224   1.269   1_455  A
C366        C417   1.468       .  S
O367        C372   1.264       .  A
O368      Fe1216   2.039   1_455  S
O368        C370   1.260       .  A
C369        C397   1.478       .  S
C369        O659   1.274       .  A
C370        C407   1.472       .  S
C370        O646   1.255       .  A
O371       Fe497   2.037   1_554  S
C372        C427   1.463       .  S
C373        C374   1.430       .  A
C373        C378   1.432       .  A
C373       Br380   1.936       .  S
C374        C375   1.437       .  A
C375        C376   1.400       .  A
C375       Br382   1.886       .  S
C376        C377   1.386       .  A
C376       Br381   1.950       .  S
C377        C378   1.424       .  A
C378       Br379   1.924       .  S
C383       C1248   1.442       .  A
C383        C388   1.403       .  A
C383       Br390   1.875       .  S
C384       C1247   1.429       .  A
C384        C385   1.415       .  A
C385        C386   1.422       .  A
C385       Br392   1.934       .  S
C386        C387   1.419       .  A
C386       Br391   1.873       .  S
C387       C1252   1.389       .  A
C388       C1251   1.385       .  A
C388       Br389   1.947   1_655  S
C393        C398   1.398       .  A
C393       Br400   1.942       .  S
C394        C681   1.413       .  A
C394        C395   1.412       .  A
C395        C396   1.403       .  A
C395       Br402   1.933       .  S
C396        C397   1.412       .  A
C396       Br401   1.923       .  S
C397        C686   1.409       .  A
C398       Br399   1.927       .  S
C403        C404   1.410       .  A
C403        C408   1.405       .  A
C403       Br410   1.933       .  S
C404        C405   1.411       .  A
C405        C406   1.400       .  A
C405       Br700   1.906       .  S
C406        C407   1.404       .  A
C406       Br699   1.932       .  S
C407        C408   1.411       .  A
C408       Br409   1.926       .  S
C413        C414   1.405       .  A
C413        C418   1.403       .  A
C413       Br420   1.927       .  S
C414        C415   1.398       .  A
C415        C416   1.397       .  A
C415       Br422   1.888       .  S
C416        C417   1.401       .  A
C416       Br421   1.908       .  S
C417        C418   1.412       .  A
C418       Br419   1.894       .  S
C423        C424   1.411       .  A
C423        C428   1.396       .  A
C423       Br430   1.899       .  S
C424        C425   1.413       .  A
C425        C426   1.398       .  A
C425       Br432   1.934       .  S
C426        C427   1.406       .  A
C426       Br431   1.897       .  S
C427        C428   1.396       .  A
C428       Br429   1.923       .  S
C433        H434   1.094       .  S
C433        C439   1.611       .  S
C433        C438   1.607       .  S
C433        C437   1.606       .  S
C435        H436   1.103       .  S
C435        C441   1.608       .  S
C435        C440   1.618       .  S
C435        C442   1.612       .  S
C437        C440   1.341       .  D
C437        C471   1.540       .  S
C438        C441   1.390       .  D
C438        N460   1.506       .  S
C439        C442   1.423       .  D
C439        N488   1.531       .  S
C440        C478   1.534       .  S
C441        N453   1.499       .  S
C442        N481   1.524       .  S
C443        H444   1.093       .  S
C443        C449   1.597       .  S
C443        C448   1.582       .  S
C443        C447   1.610       .  S
C445        H446   1.085       .  S
C445        C451   1.587       .  S
C445        C450   1.613       .  S
C445        C452   1.595       .  S
C447        C450   1.379       .  D
C447        N474   1.500       .  S
C448        C451   1.324       .  D
C448        C485   1.491       .  S
C449        C452   1.342       .  D
C449        C457   1.515       .  S
C450        N467   1.494       .  S
C451        C492   1.525       .  S
C452        C464   1.529       .  S
N453        C457   1.385       .  A
N453        C454   1.358       .  A
C454        C455   1.381       .  A
C454        C568   1.479       .  S
C455        C456   1.348       .  A
C455        H458   1.078       .  S
C456        C457   1.372       .  A
C456        H459   1.080       .  S
N460        C464   1.398       .  A
N460        C461   1.365       .  A
C461        C462   1.378       .  A
C461        C558   1.478       .  S
C462        C463   1.347       .  A
C462        H465   1.080       .  S
C463        C464   1.371       .  A
C463        H466   1.080       .  S
N467        C759   1.396       .  A
N467        C468   1.363       .  A
C468        C757   1.369       .  A
C468        C548   1.474       .  S
C469        C470   1.341       .  A
C469        H472   1.079       .  S
C470        C471   1.361       .  A
C470        H473   1.057       .  S
N474        C766   1.403       .  A
N474        C475   1.360       .  A
C475        C764   1.359       .  A
C475        C538   1.461       .  S
C476        C477   1.335       .  A
C476        H479   1.084       .  S
C477        C478   1.357       .  A
C477        H480   1.058       .  S
N481       C1349   1.376       .  A
N481        C482   1.395       .  A
C482       C1347   1.393       .  A
C482        C528   1.550       .  S
C483       C1346   1.390       .  A
C483        C484   1.336   1_655  A
C483        H486   1.054   1_655  S
C484        C485   1.344       .  A
C484        H487   1.075       .  S
C485       N1345   1.370   1_455  A
N488       C1356   1.387       .  A
N488        C489   1.384       .  A
C489       C1354   1.387       .  A
C489        C518   1.569       .  S
C490       C1353   1.384       .  A
C490        C491   1.333   1_655  A
C490        H493   1.076   1_655  S
C491        C492   1.346       .  A
C491        H494   1.065       .  S
C492       N1352   1.394   1_455  A
Fe495       O511   2.128       .  S
Fe495       O789   2.083       .  S
Fe495       O644   2.118       .  S
Fe496      O1219   2.005       .  S
Fe496       O507   2.001   1_554  S
Fe496      O1376   2.048   1_554  S
Fe496       O506   1.962       .  S
Fe497       O502   2.035       .  S
Fe497       O498   2.081   1_455  S
Fe497      O1082   1.975   1_455  S
O498       C1369   1.270       .  A
O499      Fe1216   2.006   1_455  S
O499        C513   1.262       .  A
O500        C505   1.279       .  A
O501        C504   1.271       .  A
O503        C516   1.253       .  A
C504        C531   1.511       .  S
C504       O1373   1.272       .  A
C505        C521   1.523       .  S
C505       O1362   1.274       .  A
O506      Fe1649   1.976   1_554  S
O507        C510   1.255       .  A
O508        C510   1.267       .  A
O509       C1368   1.268   1_455  A
C510        C561   1.458       .  S
O511        C516   1.280       .  A
O512      Fe1360   2.003   1_455  S
O512        C514   1.255       .  A
C513        C541   1.453       .  S
C513        O803   1.271       .  A
C514        C551   1.458       .  S
C514        O790   1.264       .  A
C516        C571   1.484       .  S
C517        C518   1.420       .  A
C517        C522   1.420       .  A
C517       Br524   1.939       .  S
C518        C519   1.448       .  A
C519        C520   1.429       .  A
C519       Br526   1.905       .  S
C520        C521   1.398       .  A
C520       Br525   1.926       .  S
C521        C522   1.402       .  A
C522       Br523   1.880       .  S
C527       C1392   1.445       .  A
C527        C532   1.398   1_655  A
C527       Br534   1.886       .  S
C528       C1391   1.448       .  A
C528        C529   1.414       .  A
C529        C530   1.415       .  A
C529       Br536   1.947       .  S
C530        C531   1.413       .  A
C530       Br535   1.870       .  S
C531       C1396   1.388       .  A
C532       C1395   1.383   1_455  A
C532       Br533   1.929       .  S
C537        C542   1.410       .  A
C537       Br544   1.932       .  S
C538        C825   1.417       .  A
C538        C539   1.414       .  A
C539        C540   1.393       .  A
C539       Br546   1.923       .  S
C540        C541   1.397       .  A
C540       Br545   1.928       .  S
C541        C830   1.403       .  A
C542       Br543   1.923       .  S
C547        C548   1.412       .  A
C547        C552   1.400       .  A
C547       Br554   1.934       .  S
C548        C549   1.411       .  A
C549        C550   1.393       .  A
C549       Br844   1.914       .  S
C550        C551   1.405       .  A
C550       Br843   1.933       .  S
C551        C552   1.406       .  A
C552       Br553   1.921       .  S
C557        C558   1.412       .  A
C557        C562   1.399       .  A
C557       Br564   1.931       .  S
C558        C559   1.413       .  A
C559        C560   1.398       .  A
C559       Br566   1.903       .  S
C560        C561   1.399       .  A
C560       Br565   1.929       .  S
C561        C562   1.398       .  A
C562       Br563   1.908       .  S
C567        C568   1.400       .  A
C567        C572   1.399       .  A
C567       Br574   1.908       .  S
C568        C569   1.406       .  A
C569        C570   1.401       .  A
C569       Br576   1.935       .  S
C570        C571   1.422       .  A
C570       Br575   1.902       .  S
C571        C572   1.409       .  A
C572       Br573   1.912       .  S
C577        H578   1.097       .  S
C577        C583   1.604       .  S
C577        C582   1.613       .  S
C577        C581   1.611       .  S
C579        H580   1.101       .  S
C579        C585   1.612       .  S
C579        C584   1.604       .  S
C579        C586   1.608       .  S
C581        C584   1.342       .  D
C581        C615   1.530       .  S
C582        C585   1.392       .  D
C582        N604   1.509       .  S
C583        C586   1.423       .  D
C583        N632   1.522       .  S
C584        C622   1.536       .  S
C585        N597   1.501       .  S
C586        N625   1.527       .  S
C587        H588   1.101       .  S
C587        C593   1.604       .  S
C587        C592   1.581       .  S
C587        C591   1.607       .  S
C589        H590   1.097       .  S
C589        C595   1.587       .  S
C589        C594   1.615       .  S
C589        C596   1.596       .  S
C591        C594   1.380       .  D
C591        N618   1.499       .  S
C592        C595   1.326       .  D
C592        C629   1.493       .  S
C593        C596   1.345       .  D
C593        C601   1.513       .  S
C594        N611   1.495       .  S
C595        C636   1.520       .  S
C596        C608   1.533       .  S
N597        C601   1.386       .  A
N597        C598   1.359       .  A
C598        C599   1.382       .  A
C598        C712   1.476       .  S
C599        C600   1.342       .  A
C599        H602   1.079       .  S
C600        C601   1.370       .  A
C600        H603   1.078       .  S
N604        C608   1.403       .  A
N604        C605   1.366       .  A
C605        C606   1.378       .  A
C605        C702   1.478       .  S
C606        C607   1.342       .  A
C606        H609   1.079       .  S
C607        C608   1.374       .  A
C607        H610   1.080       .  S
N611        C612   1.361       .  A
C612        C692   1.468       .  S
C613        C614   1.347       .  A
C613        H616   1.083       .  S
C614        C615   1.358       .  A
C614        H617   1.051       .  S
N618        C619   1.367       .  A
C619        C682   1.482       .  S
C620        C621   1.334       .  A
C620        H623   1.084       .  S
C621        C622   1.365       .  A
C621        H624   1.063       .  S
N625       C1493   1.377       .  A
N625        C626   1.392       .  A
C626       C1491   1.391       .  A
C626        C672   1.542       .  S
C627       C1490   1.390       .  A
C627        C628   1.336   1_655  A
C627        H630   1.053   1_655  S
C628        C629   1.347       .  A
C628        H631   1.077       .  S
C629       N1489   1.372   1_455  A
N632       C1500   1.373       .  A
N632        C633   1.389       .  A
C633       C1498   1.395       .  A
C633        C662   1.546       .  S
C634       C1497   1.391   1_455  A
C634        C635   1.334       .  A
C634        H637   1.072       .  S
C635        C636   1.343       .  A
C635        H638   1.064       .  S
C636       N1496   1.387   1_455  A
Fe639       O655   2.100   1_556  S
Fe639       O796   2.064       .  S
Fe639       O794   1.982       .  S
Fe640      O1651   2.025       .  S
Fe640       O791   2.001       .  S
Fe640       O651   2.056       .  S
Fe640      O1520   2.019       .  S
Fe640       O650   1.964       .  S
Fe641       O803   2.067       .  S
Fe641       O646   2.023       .  S
Fe641       O797   2.051       .  S
Fe641       O642   2.100       .  S
Fe641      O1226   1.975   1_455  S
O642       C1513   1.277   1_455  A
O643      Fe1648   2.019   1_454  S
O643        C657   1.262       .  A
O644        C649   1.281       .  A
O645        C648   1.266       .  A
O647       Fe784   2.011   1_554  S
O647        C660   1.258       .  A
C648        C675   1.489       .  S
C648       O1517   1.264       .  A
C649        C665   1.512       .  S
C649       O1506   1.276       .  A
O650       Fe783   1.964       .  S
O650       Fe929   1.960   1_565  S
O651        C654   1.261       .  A
O652       Fe783   2.080       .  S
O652        C654   1.274       .  A
O653       Fe785   2.057   1_554  S
O653       C1512   1.267   1_455  A
C654        C705   1.478       .  S
O655        C660   1.274       .  A
O656      Fe1504   2.029   1_455  S
O656        C658   1.264       .  A
C657        C685   1.471       .  S
C658        C695   1.461       .  S
O659       Fe785   2.086   1_554  S
C660        C715   1.472       .  S
C661        C662   1.420       .  A
C661        C666   1.419       .  A
C661       Br668   1.965       .  S
C662        C663   1.444       .  A
C663        C664   1.409       .  A
C663       Br670   1.884       .  S
C664        C665   1.388       .  A
C664       Br669   1.956       .  S
C665        C666   1.427       .  A
C666       Br667   1.890       .  S
C671       C1536   1.448       .  A
C671        C676   1.400   1_655  A
C671       Br678   1.887       .  S
C672       C1535   1.435       .  A
C672        C673   1.416       .  A
C673        C674   1.417       .  A
C673       Br680   1.934       .  S
C674        C675   1.410       .  A
C674       Br679   1.880       .  S
C675       C1540   1.380       .  A
C676       C1539   1.382   1_455  A
C676       Br677   1.928       .  S
C681        C686   1.403       .  A
C681       Br688   1.935       .  S
C682        C683   1.417       .  A
C683        C684   1.400       .  A
C683       Br690   1.927       .  S
C684        C685   1.400       .  A
C684       Br689   1.925       .  S
C686       Br687   1.927       .  S
C691        C692   1.410       .  A
C691        C696   1.396   1_565  A
C691       Br698   1.939   1_565  S
C692        C693   1.410       .  A
C693        C694   1.398       .  A
C694        C695   1.406       .  A
C695        C696   1.409   1_565  A
C696       Br697   1.923       .  S
C701        C702   1.402       .  A
C701        C706   1.398       .  A
C701       Br708   1.927       .  S
C702        C703   1.406       .  A
C703        C704   1.405       .  A
C703       Br710   1.905       .  S
C704        C705   1.410       .  A
C704       Br709   1.916       .  S
C705        C706   1.403       .  A
C706       Br707   1.887       .  S
C711        C712   1.400       .  A
C711        C716   1.396       .  A
C711       Br718   1.903       .  S
C712        C713   1.407       .  A
C713        C714   1.398       .  A
C713       Br720   1.932       .  S
C714        C715   1.415       .  A
C714       Br719   1.898       .  S
C715        C716   1.403       .  A
C716       Br717   1.908       .  S
C721        H722   1.101       .  S
C721        C727   1.610       .  S
C721        C726   1.627       .  S
C721        C725   1.602       .  S
C723        H724   1.103       .  S
C723        C729   1.610       .  S
C723        C728   1.619       .  S
C723        C730   1.609       .  S
C725        C728   1.341       .  D
C725        C759   1.540       .  S
C726        C729   1.390       .  D
C726        N748   1.509       .  S
C727        C730   1.430       .  D
C727        N776   1.526       .  S
C728        C766   1.528       .  S
C729        N741   1.511       .  S
C730        N769   1.533       .  S
C731        H732   1.101       .  S
C731        C737   1.606       .  S
C731        C736   1.585       .  S
C731        C735   1.612       .  S
C733        H734   1.095       .  S
C733        C739   1.582       .  S
C733        C738   1.608       .  S
C733        C740   1.604       .  S
C735        C738   1.383       .  D
C735        N762   1.498       .  S
C736        C739   1.331       .  D
C736        C773   1.507       .  S
C737        C740   1.344       .  D
C737        C745   1.526       .  S
C738        N755   1.496       .  S
C739        C780   1.513       .  S
C740        C752   1.529       .  S
N741        C745   1.394       .  A
N741        C742   1.362       .  A
C742        C743   1.383       .  A
C742        C856   1.483       .  S
C743        C744   1.344       .  A
C743        H746   1.079       .  S
C744        C745   1.371       .  A
C744        H747   1.081       .  S
N748        C752   1.402       .  A
N748        C749   1.361       .  A
C749        C750   1.380       .  A
C749        C846   1.473       .  S
C750        C751   1.337       .  A
C750        H753   1.078       .  S
C751        C752   1.368       .  A
C751        H754   1.078       .  S
N755        C756   1.364       .  A
C756        C836   1.472       .  S
C757        C758   1.345       .  A
C757        H760   1.079       .  S
C758        C759   1.361       .  A
C758        H761   1.058       .  S
N762        C763   1.367       .  A
C763        C826   1.481       .  S
C764        C765   1.326       .  A
C764        H767   1.080       .  S
C765        C766   1.361       .  A
C765        H768   1.063       .  S
N769       C1637   1.382       .  A
N769        C770   1.399       .  A
C770       C1635   1.389       .  A
C770        C816   1.554       .  S
C771       C1634   1.389   1_455  A
C771        C772   1.339       .  A
C771        H774   1.072       .  S
C772        C773   1.350       .  A
C772        H775   1.072       .  S
C773       N1633   1.379   1_455  A
N776       C1644   1.379       .  A
N776        C777   1.400       .  A
C777       C1642   1.393       .  A
C777        C806   1.557       .  S
C778       C1641   1.388       .  A
C778        C779   1.354   1_655  A
C778        H781   1.074       .  S
C779        C780   1.363       .  A
C779        H782   1.077       .  S
C780       N1640   1.384   1_455  A
Fe783       O799   2.122       .  S
Fe784      O1507   2.030   1_556  S
Fe784       O795   2.027       .  S
Fe784      O1664   2.036       .  S
Fe784       O794   1.973       .  S
Fe785       O790   2.051       .  S
Fe785       O786   2.112       .  S
Fe785      O1370   1.979   1_455  S
O786       C1657   1.278   1_455  A
O787      Fe1504   2.034   1_455  S
O787        C801   1.259       .  A
O788        C793   1.275       .  A
O789        C792   1.272       .  A
O791        C804   1.256       .  A
C792        C819   1.493       .  S
C792       O1661   1.263       .  A
C793        C809   1.512       .  S
C793       O1650   1.279       .  A
O794      Fe1073   1.975   1_565  S
O795        C798   1.259       .  A
O796        C798   1.265       .  A
O797       C1656   1.262   1_455  A
C798        C849   1.459       .  S
O799        C804   1.279       .  A
O800      Fe1648   2.029   1_455  S
O800        C802   1.258       .  A
C801        C829   1.481       .  S
C802        C839   1.469       .  S
C804        C859   1.477       .  S
C805        C806   1.431       .  A
C805        C810   1.436       .  A
C805       Br812   1.942       .  S
C806        C807   1.438       .  A
C807        C808   1.403       .  A
C807       Br814   1.883       .  S
C808        C809   1.388       .  A
C808       Br813   1.956       .  S
C809        C810   1.430       .  A
C810       Br811   1.925       .  S
C815       C1680   1.432       .  A
C815        C820   1.393   1_655  A
C815       Br822   1.879       .  S
C816       C1679   1.443       .  A
C816        C817   1.415       .  A
C817        C818   1.422       .  A
C817       Br824   1.928       .  S
C818        C819   1.407       .  A
C818       Br823   1.882       .  S
C819       C1684   1.387       .  A
C820       C1683   1.382   1_455  A
C820       Br821   1.928       .  S
C825        C830   1.401       .  A
C825       Br832   1.935       .  S
C826        C827   1.414       .  A
C827        C828   1.403       .  A
C827       Br834   1.930       .  S
C828        C829   1.408       .  A
C828       Br833   1.925       .  S
C830       Br831   1.925       .  S
C835        C836   1.412       .  A
C835        C840   1.401   1_565  A
C835       Br842   1.937   1_565  S
C836        C837   1.412       .  A
C837        C838   1.398       .  A
C838        C839   1.408       .  A
C839        C840   1.409   1_565  A
C840       Br841   1.926       .  S
C845        C846   1.404       .  A
C845        C850   1.400       .  A
C845       Br852   1.928       .  S
C846        C847   1.400       .  A
C847        C848   1.393       .  A
C847       Br854   1.891       .  S
C848        C849   1.400       .  A
C848       Br853   1.909       .  S
C849        C850   1.411       .  A
C850       Br851   1.901       .  S
C855        C856   1.406       .  A
C855        C860   1.401       .  A
C855       Br862   1.908       .  S
C856        C857   1.409       .  A
C857        C858   1.398       .  A
C857       Br864   1.932       .  S
C858        C859   1.414       .  A
C858       Br863   1.896       .  S
C859        C860   1.403       .  A
C860       Br861   1.911       .  S
C865        H866   1.101       .  S
C865        C871   1.610       .  S
C865        C870   1.621       .  S
C865        C869   1.612       .  S
C867        H868   1.099       .  S
C867        C873   1.613       .  S
C867        C872   1.606       .  S
C867        C874   1.612       .  S
C869        C872   1.343       .  D
C869        C903   1.529       .  S
C870        C873   1.384       .  D
C870        N892   1.509       .  S
C871        C874   1.425       .  D
C871        N920   1.531       .  S
C872        C910   1.537       .  S
C873        N885   1.502       .  S
C874        N913   1.528       .  S
C875        H876   1.093       .  S
C875        C881   1.605       .  S
C875        C880   1.580       .  S
C875        C879   1.617       .  S
C877        H878   1.093       .  S
C877        C883   1.579       .  S
C877        C882   1.602       .  S
C877        C884   1.605       .  S
C879        C882   1.384       .  D
C879        N906   1.504       .  S
C880        C883   1.327       .  D
C880        C917   1.508       .  S
C881        C884   1.345       .  D
C881        C889   1.520       .  S
C882        N899   1.493       .  S
C883        C924   1.502       .  S
C884        C896   1.534       .  S
N885        C889   1.392       .  A
N885        C886   1.356       .  A
C886        C887   1.381       .  A
C886       C1000   1.470       .  S
C887        C888   1.341       .  A
C887        H890   1.078       .  S
C888        C889   1.371       .  A
C888        H891   1.078       .  S
N892        C896   1.403       .  A
N892        C893   1.361       .  A
C893        C894   1.379       .  A
C893        C990   1.474       .  S
C894        C895   1.342       .  A
C894        H897   1.081       .  S
C895        C896   1.370       .  A
C895        H898   1.078       .  S
N899       C1191   1.397       .  A
N899        C900   1.375       .  A
C900       C1189   1.352       .  A
C900        C980   1.493       .  S
C901       C1476   1.362   1_545  A
C901        C902   1.338       .  A
C901        H904   1.084       .  S
C902        C903   1.362       .  A
C902        H905   1.057       .  S
C903       N1475   1.396   1_545  A
N906       C1198   1.408       .  A
N906        C907   1.368       .  A
C907       C1196   1.363       .  A
C907        C970   1.471       .  S
C908       C1483   1.356   1_545  A
C908        C909   1.332       .  A
C908        H911   1.080       .  S
C909        C910   1.360       .  A
C909        H912   1.062       .  S
C910       N1482   1.403   1_545  A
N913        C914   1.390       .  A
C914        C960   1.537       .  S
C915        C916   1.344       .  A
C915        H918   1.048       .  S
C916        C917   1.352       .  A
C916        H919   1.073       .  S
N920        C921   1.401       .  A
C921        C950   1.563       .  S
C922        C923   1.339       .  A
C922        H925   1.070       .  S
C923        C924   1.352       .  A
C923        H926   1.078       .  S
Fe927       O943   2.044       .  S
Fe927      O1221   2.099       .  S
Fe927      O1084   2.070   1_554  S
Fe927      O1364   2.089   1_554  S
Fe927      O1082   1.983   1_554  S
Fe928      O1079   2.016       .  S
Fe928       O939   2.006       .  S
Fe928       O938   1.977       .  S
Fe929      O1091   2.080       .  S
Fe929       O934   2.072       .  S
Fe929      O1085   2.059       .  S
Fe929       O930   2.123       .  S
O931        C945   1.262       .  A
O932      Fe1647   2.105   1_545  S
O932        C937   1.275       .  A
O933      Fe1503   2.073   1_545  S
O933        C936   1.267       .  A
O934       C1522   1.272   1_545  A
O935      Fe1072   2.016   1_554  S
O935        C948   1.259       .  A
C936        C963   1.480       .  S
C937        C953   1.519       .  S
O938      Fe1071   1.980       .  S
O939        C942   1.255       .  A
O940      Fe1071   2.115       .  S
O940        C942   1.278       .  A
O941      Fe1073   2.058   1_554  S
C942        C993   1.478       .  S
O943        C948   1.262       .  A
O944        C946   1.260       .  A
C945        C973   1.477       .  S
C945       O1235   1.270       .  A
C946        C983   1.490       .  S
C946       O1222   1.263       .  A
O947      Fe1073   2.086   1_554  S
O947       C1521   1.273   1_545  A
C948       C1003   1.443       .  S
C949        C950   1.423       .  A
C949        C954   1.423       .  A
C949       Br956   1.946       .  S
C950        C951   1.449       .  A
C951        C952   1.415       .  A
C951       Br958   1.875       .  S
C952        C953   1.383       .  A
C952       Br957   1.947       .  S
C953        C954   1.415       .  A
C954       Br955   1.878       .  S
C959        C964   1.414       .  A
C959       Br966   1.883       .  S
C960        C961   1.414       .  A
C961        C962   1.414       .  A
C961       Br968   1.931       .  S
C962        C963   1.403       .  A
C962       Br967   1.875       .  S
C964       Br965   1.947       .  S
C969       C1546   1.416       .  A
C969        C974   1.410   1_565  A
C969       Br976   1.931   1_565  S
C970       C1257   1.413       .  A
C970        C971   1.412       .  A
C971        C972   1.401       .  A
C971       Br978   1.927       .  S
C972        C973   1.407       .  A
C972       Br977   1.922       .  S
C973       C1262   1.411       .  A
C974       C1549   1.409   1_545  A
C974       Br975   1.928       .  S
C979        C980   1.411       .  A
C979        C984   1.410       .  A
C979       Br986   1.926       .  S
C980        C981   1.420       .  A
C981        C982   1.409       .  A
C981      Br1276   1.925       .  S
C982        C983   1.410       .  A
C982      Br1275   1.932       .  S
C983        C984   1.410       .  A
C984       Br985   1.930       .  S
Br987      C1558   1.931       .  S
Br988      C1557   1.926       .  S
C989        C990   1.406       .  A
C989        C994   1.394       .  A
C989       Br996   1.933       .  S
C990        C991   1.402       .  A
C991        C992   1.402       .  A
C991       Br998   1.907       .  S
C992        C993   1.412       .  A
C992       Br997   1.912       .  S
C993        C994   1.411       .  A
C994       Br995   1.895       .  S
C999       C1000   1.403       .  A
C999       C1004   1.389       .  A
C999      Br1006   1.892       .  S
C1000      C1001   1.410       .  A
C1001      C1002   1.390       .  A
C1001     Br1008   1.931       .  S
C1002      C1003   1.401       .  A
C1002     Br1007   1.896       .  S
C1003      C1004   1.395       .  A
C1004     Br1005   1.914       .  S
C1009      H1010   1.101       .  S
C1009      C1015   1.609       .  S
C1009      C1014   1.624       .  S
C1009      C1013   1.613       .  S
C1011      H1012   1.103       .  S
C1011      C1017   1.606       .  S
C1011      C1016   1.619       .  S
C1011      C1018   1.609       .  S
C1013      C1016   1.345       .  D
C1013      C1047   1.550       .  S
C1014      C1017   1.392       .  D
C1014      N1036   1.506       .  S
C1015      C1018   1.428       .  D
C1015      N1064   1.529       .  S
C1016      C1054   1.533       .  S
C1017      N1029   1.511       .  S
C1018      N1057   1.528       .  S
C1019      H1020   1.098       .  S
C1019      C1025   1.606       .  S
C1019      C1024   1.587       .  S
C1019      C1023   1.612       .  S
C1021      H1022   1.083       .  S
C1021      C1027   1.582       .  S
C1021      C1026   1.599       .  S
C1021      C1028   1.597       .  S
C1023      C1026   1.384       .  D
C1023      N1050   1.503       .  S
C1024      C1027   1.327       .  D
C1024      C1061   1.506       .  S
C1025      C1028   1.344       .  D
C1025      C1033   1.521       .  S
C1026      N1043   1.491       .  S
C1027      C1068   1.512       .  S
C1028      C1040   1.529       .  S
N1029      C1033   1.394       .  A
N1029      C1030   1.365       .  A
C1030      C1031   1.382       .  A
C1030      C1144   1.485       .  S
C1031      C1032   1.339       .  A
C1031      H1034   1.079       .  S
C1032      C1033   1.369       .  A
C1032      H1035   1.079       .  S
N1036      C1040   1.398       .  A
N1036      C1037   1.363       .  A
C1037      C1038   1.381       .  A
C1037      C1134   1.478       .  S
C1038      C1039   1.342       .  A
C1038      H1041   1.080       .  S
C1039      C1040   1.368       .  A
C1039      H1042   1.077       .  S
N1043      C1335   1.385       .  A
N1043      C1044   1.367       .  A
C1044      C1333   1.373       .  A
C1044      C1124   1.478       .  S
C1045      C1620   1.370   1_545  A
C1045      C1046   1.346       .  A
C1045      H1048   1.078       .  S
C1046      C1047   1.360       .  A
C1046      H1049   1.057       .  S
C1047      N1619   1.402   1_545  A
N1050      C1342   1.410       .  A
N1050      C1051   1.372       .  A
C1051      C1340   1.355       .  A
C1051      C1114   1.478       .  S
C1052      C1627   1.364   1_545  A
C1052      C1053   1.330       .  A
C1052      H1055   1.083       .  S
C1053      C1054   1.359       .  A
C1053      H1056   1.059       .  S
C1054      N1626   1.401   1_545  A
N1057      C1058   1.393       .  A
C1058      C1104   1.542       .  S
C1059      C1060   1.340       .  A
C1059      H1062   1.066       .  S
C1060      C1061   1.346       .  A
C1060      H1063   1.069       .  S
N1064      C1065   1.400       .  A
C1065      C1094   1.559       .  S
C1066      C1067   1.337       .  A
C1066      H1069   1.065       .  S
C1067      C1068   1.345       .  A
C1067      H1070   1.071       .  S
Fe1071     O1087   2.113       .  S
Fe1071     O1365   2.108       .  S
Fe1071     O1220   2.125       .  S
Fe1072     O1083   2.012       .  S
Fe1072     O1082   1.967       .  S
Fe1073     O1078   2.044       .  S
Fe1073     O1074   2.121       .  S
O1075      C1089   1.274       .  A
O1076     Fe1503   2.122   1_546  S
O1076      C1081   1.282       .  A
O1077     Fe1647   2.093   1_545  S
O1077      C1080   1.273       .  A
O1078      C1666   1.262   1_545  A
O1079      C1092   1.256       .  A
C1080      C1107   1.495       .  S
C1081      C1097   1.525       .  S
O1083      C1086   1.259       .  A
O1084      C1086   1.268       .  A
C1086      C1137   1.463       .  S
O1087      C1092   1.275       .  A
O1088      C1090   1.255       .  A
C1089      C1117   1.482       .  S
C1089      O1379   1.269       .  A
C1090      C1127   1.460       .  S
C1090      O1366   1.266       .  A
O1091      C1665   1.268   1_545  A
C1092      C1147   1.481       .  S
C1093      C1094   1.429       .  A
C1093      C1098   1.433       .  A
C1093     Br1100   1.940       .  S
C1094      C1095   1.440       .  A
C1095      C1096   1.418       .  A
C1095     Br1102   1.906       .  S
C1096      C1097   1.398       .  A
C1096     Br1101   1.942       .  S
C1097      C1098   1.425       .  A
C1098     Br1099   1.922       .  S
C1103      C1108   1.395       .  A
C1103     Br1110   1.870       .  S
C1104      C1105   1.419       .  A
C1105      C1106   1.419       .  A
C1105     Br1112   1.939       .  S
C1106      C1107   1.410       .  A
C1106     Br1111   1.878       .  S
C1108     Br1109   1.926       .  S
C1113      C1690   1.415       .  A
C1113      C1118   1.410   1_565  A
C1113     Br1120   1.933   1_565  S
C1114      C1401   1.414       .  A
C1114      C1115   1.418       .  A
C1115      C1116   1.404       .  A
C1115     Br1122   1.928       .  S
C1116      C1117   1.401       .  A
C1116     Br1121   1.928       .  S
C1117      C1406   1.412       .  A
C1118      C1693   1.410   1_545  A
C1118     Br1119   1.921       .  S
C1123      C1124   1.415       .  A
C1123      C1128   1.406       .  A
C1123     Br1130   1.930       .  S
C1124      C1125   1.409       .  A
C1125      C1126   1.388       .  A
C1125     Br1420   1.922       .  S
C1126      C1127   1.402       .  A
C1126     Br1419   1.926       .  S
C1127      C1128   1.407       .  A
C1128     Br1129   1.929       .  S
Br1131     C1702   1.942       .  S
Br1132     C1701   1.911       .  S
C1133      C1134   1.412       .  A
C1133      C1138   1.401       .  A
C1133     Br1140   1.930       .  S
C1134      C1135   1.406       .  A
C1135      C1136   1.399       .  A
C1135     Br1142   1.902       .  S
C1136      C1137   1.402       .  A
C1136     Br1141   1.919       .  S
C1137      C1138   1.399       .  A
C1138     Br1139   1.904       .  S
C1143      C1144   1.403       .  A
C1143      C1148   1.400       .  A
C1143     Br1150   1.904       .  S
C1144      C1145   1.408       .  A
C1145      C1146   1.404       .  A
C1145     Br1152   1.927       .  S
C1146      C1147   1.415       .  A
C1146     Br1151   1.901       .  S
C1147      C1148   1.405       .  A
C1148     Br1149   1.906       .  S
C1153      H1154   1.093       .  S
C1153      C1159   1.607       .  S
C1153      C1158   1.603       .  S
C1153      C1157   1.606       .  S
C1155      H1156   1.101       .  S
C1155      C1161   1.610       .  S
C1155      C1160   1.619       .  S
C1155      C1162   1.611       .  S
C1157      C1160   1.344       .  D
C1157      C1191   1.538       .  S
C1158      C1161   1.395       .  D
C1158      N1180   1.504       .  S
C1159      C1162   1.418       .  D
C1159      N1208   1.524       .  S
C1160      C1198   1.537       .  S
C1161      N1173   1.506       .  S
C1162      N1201   1.524       .  S
C1163      H1164   1.096       .  S
C1163      C1169   1.598       .  S
C1163      C1168   1.586       .  S
C1163      C1167   1.611       .  S
C1165      H1166   1.080       .  S
C1165      C1171   1.588       .  S
C1165      C1170   1.613       .  S
C1165      C1172   1.592       .  S
C1167      C1170   1.380       .  D
C1167      N1194   1.497       .  S
C1168      C1171   1.323       .  D
C1168      C1205   1.497       .  S
C1169      C1172   1.341       .  D
C1169      C1177   1.516       .  S
C1170      N1187   1.493       .  S
C1171      C1212   1.527       .  S
C1172      C1184   1.524       .  S
N1173      C1177   1.390       .  A
N1173      C1174   1.364       .  A
C1174      C1175   1.383       .  A
C1174      C1288   1.486       .  S
C1175      C1176   1.347       .  A
C1175      H1178   1.079       .  S
C1176      C1177   1.372       .  A
C1176      H1179   1.082       .  S
N1180      C1184   1.394       .  A
N1180      C1181   1.369       .  A
C1181      C1182   1.375       .  A
C1181      C1278   1.487       .  S
C1182      C1183   1.346       .  A
C1182      H1185   1.076       .  S
C1183      C1184   1.368       .  A
C1183      H1186   1.078       .  S
N1187      C1479   1.399       .  A
N1187      C1188   1.363       .  A
C1188      C1477   1.369       .  A
C1188      C1268   1.473       .  S
C1189      C1190   1.343       .  A
C1189      H1192   1.079       .  S
C1190      C1191   1.360       .  A
C1190      H1193   1.057       .  S
N1194      C1486   1.403       .  A
N1194      C1195   1.362       .  A
C1195      C1484   1.356       .  A
C1195      C1258   1.464       .  S
C1196      C1197   1.331       .  A
C1196      H1199   1.085       .  S
C1197      C1198   1.363       .  A
C1197      H1200   1.059       .  S
N1201      C1202   1.394       .  A
C1202      C1248   1.540       .  S
C1203      C1204   1.338       .  A
C1203      H1206   1.068       .  S
C1204      C1205   1.347       .  A
C1204      H1207   1.070       .  S
N1208      C1209   1.379       .  A
C1209      C1238   1.559       .  S
C1210      C1211   1.336       .  A
C1210      H1213   1.068       .  S
C1211      C1212   1.344       .  A
C1211      H1214   1.067       .  S
Fe1215     O1231   2.105       .  S
Fe1215     O1509   2.100       .  S
Fe1215     O1372   2.102   1_554  S
Fe1215     O1652   2.110   1_554  S
Fe1215     O1370   1.978   1_554  S
Fe1216     O1367   2.050       .  S
Fe1216     O1227   2.004       .  S
Fe1216     O1226   1.957       .  S
Fe1217     O1379   2.055       .  S
Fe1217     O1222   2.059       .  S
Fe1217     O1373   2.093       .  S
Fe1217     O1218   2.088       .  S
O1219      C1233   1.261       .  A
O1220      C1225   1.279       .  A
O1221      C1224   1.270       .  A
O1223     Fe1360   2.012   1_554  S
O1223      C1236   1.255       .  A
C1224      C1251   1.502       .  S
C1225      C1241   1.527       .  S
O1226     Fe1359   1.964       .  S
O1227      C1230   1.256       .  A
O1228     Fe1359   2.081       .  S
O1228      C1230   1.270       .  A
O1229     Fe1361   2.052   1_554  S
C1230      C1281   1.464       .  S
O1231      C1236   1.273       .  A
O1232      C1234   1.262       .  A
C1233      C1261   1.454       .  S
C1233      O1523   1.272       .  A
C1234      C1271   1.452       .  S
C1234      O1510   1.260       .  A
O1235     Fe1361   2.080   1_554  S
C1236      C1291   1.478       .  S
C1237      C1238   1.416       .  A
C1237      C1242   1.414       .  A
C1237     Br1244   1.945       .  S
C1238      C1239   1.445       .  A
C1239      C1240   1.429       .  A
C1239     Br1246   1.908   1_655  S
C1240      C1241   1.401       .  A
C1240     Br1245   1.924   1_655  S
C1241      C1242   1.403       .  A
C1242     Br1243   1.867       .  S
C1247      C1252   1.386       .  A
C1247     Br1254   1.886       .  S
C1248      C1249   1.414       .  A
C1249      C1250   1.418       .  A
C1249     Br1256   1.942       .  S
C1250      C1251   1.420       .  A
C1250     Br1255   1.879       .  S
C1252     Br1253   1.924       .  S
C1257      C1262   1.404       .  A
C1257     Br1264   1.938       .  S
C1258      C1545   1.415       .  A
C1258      C1259   1.413       .  A
C1259      C1260   1.394       .  A
C1259     Br1266   1.923       .  S
C1260      C1261   1.400       .  A
C1260     Br1265   1.930       .  S
C1261      C1550   1.403       .  A
C1262     Br1263   1.924       .  S
C1267      C1268   1.408       .  A
C1267      C1272   1.391       .  A
C1267     Br1274   1.939       .  S
C1268      C1269   1.418       .  A
C1269      C1270   1.394       .  A
C1269     Br1564   1.901       .  S
C1270      C1271   1.398       .  A
C1270     Br1563   1.941       .  S
C1271      C1272   1.408       .  A
C1272     Br1273   1.917       .  S
C1277      C1278   1.413       .  A
C1277      C1282   1.405       .  A
C1277     Br1284   1.927       .  S
C1278      C1279   1.415       .  A
C1279      C1280   1.400       .  A
C1279     Br1286   1.898       .  S
C1280      C1281   1.398       .  A
C1280     Br1285   1.929       .  S
C1281      C1282   1.398       .  A
C1282     Br1283   1.910       .  S
C1287      C1288   1.403       .  A
C1287      C1292   1.401       .  A
C1287     Br1294   1.905       .  S
C1288      C1289   1.407       .  A
C1289      C1290   1.403       .  A
C1289     Br1296   1.928       .  S
C1290      C1291   1.414       .  A
C1290     Br1295   1.905       .  S
C1291      C1292   1.408       .  A
C1292     Br1293   1.912       .  S
C1297      H1298   1.107       .  S
C1297      C1303   1.610       .  S
C1297      C1302   1.626       .  S
C1297      C1301   1.615       .  S
C1299      H1300   1.095       .  S
C1299      C1305   1.604       .  S
C1299      C1304   1.602       .  S
C1299      C1306   1.607       .  S
C1301      C1304   1.342       .  D
C1301      C1335   1.523       .  S
C1302      C1305   1.390       .  D
C1302      N1324   1.503       .  S
C1303      C1306   1.426       .  D
C1303      N1352   1.536       .  S
C1304      C1342   1.542       .  S
C1305      N1317   1.512       .  S
C1306      N1345   1.520       .  S
C1307      H1308   1.098       .  S
C1307      C1313   1.608       .  S
C1307      C1312   1.591       .  S
C1307      C1311   1.607       .  S
C1309      H1310   1.091       .  S
C1309      C1315   1.573       .  S
C1309      C1314   1.614       .  S
C1309      C1316   1.598       .  S
C1311      C1314   1.390       .  D
C1311      N1338   1.511       .  S
C1312      C1315   1.329       .  D
C1312      C1349   1.503       .  S
C1313      C1316   1.345       .  D
C1313      C1321   1.527       .  S
C1314      N1331   1.490       .  S
C1315      C1356   1.515       .  S
C1316      C1328   1.525       .  S
N1317      C1321   1.399       .  A
N1317      C1318   1.362       .  A
C1318      C1319   1.380       .  A
C1318      C1432   1.479       .  S
C1319      C1320   1.344       .  A
C1319      H1322   1.081       .  S
C1320      C1321   1.372       .  A
C1320      H1323   1.078       .  S
N1324      C1328   1.392       .  A
N1324      C1325   1.360       .  A
C1325      C1326   1.384       .  A
C1325      C1422   1.486       .  S
C1326      C1327   1.343       .  A
C1326      H1329   1.078       .  S
C1327      C1328   1.367       .  A
C1327      H1330   1.078       .  S
N1331      C1623   1.395       .  A
N1331      C1332   1.369       .  A
C1332      C1621   1.361       .  A
C1332      C1412   1.486       .  S
C1333      C1334   1.344       .  A
C1333      H1336   1.081       .  S
C1334      C1335   1.356       .  A
C1334      H1337   1.055       .  S
N1338      C1630   1.408       .  A
N1338      C1339   1.376       .  A
C1339      C1628   1.361       .  A
C1339      C1402   1.480       .  S
C1340      C1341   1.330       .  A
C1340      H1343   1.083       .  S
C1341      C1342   1.365       .  A
C1341      H1344   1.061       .  S
N1345      C1346   1.392       .  A
C1346      C1392   1.549       .  S
C1347      C1348   1.337       .  A
C1347      H1350   1.061       .  S
C1348      C1349   1.346       .  A
C1348      H1351   1.075       .  S
N1352      C1353   1.404       .  A
C1353      C1382   1.541       .  S
C1354      C1355   1.353       .  A
C1354      H1357   1.071       .  S
C1355      C1356   1.364       .  A
C1355      H1358   1.081       .  S
Fe1359     O1375   2.059       .  S
Fe1359     O1653   2.075       .  S
Fe1359     O1508   2.080       .  S
Fe1360     O1371   2.006       .  S
Fe1360     O1370   1.977       .  S
Fe1361     O1366   2.066       .  S
Fe1361     O1362   2.099       .  S
O1363      C1377   1.258       .  A
O1364      C1369   1.277       .  A
O1365      C1368   1.277       .  A
O1367      C1380   1.263       .  A
C1368      C1395   1.498       .  S
C1369      C1385   1.500       .  S
O1371      C1374   1.256       .  A
O1372      C1374   1.274       .  A
C1374      C1425   1.468       .  S
O1375      C1380   1.264       .  A
O1376      C1378   1.262       .  A
C1377      C1405   1.481       .  S
C1377      O1667   1.270       .  A
C1378      C1415   1.479       .  S
C1378      O1654   1.257       .  A
C1380      C1435   1.467       .  S
C1381      C1382   1.424       .  A
C1381      C1386   1.427       .  A
C1381     Br1388   1.938       .  S
C1382      C1383   1.439       .  A
C1383      C1384   1.403       .  A
C1383     Br1390   1.896       .  S
C1384      C1385   1.390       .  A
C1384     Br1389   1.954       .  S
C1385      C1386   1.424       .  A
C1386     Br1387   1.924       .  S
C1391      C1396   1.417       .  A
C1391     Br1398   1.876       .  S
C1392      C1393   1.419       .  A
C1393      C1394   1.423       .  A
C1393     Br1400   1.933       .  S
C1394      C1395   1.408       .  A
C1394     Br1399   1.876       .  S
C1396     Br1397   1.947       .  S
C1401      C1406   1.404       .  A
C1401     Br1408   1.939       .  S
C1402      C1689   1.415       .  A
C1402      C1403   1.417       .  A
C1403      C1404   1.405       .  A
C1403     Br1410   1.934       .  S
C1404      C1405   1.414       .  A
C1404     Br1409   1.936       .  S
C1405      C1694   1.411       .  A
C1406     Br1407   1.925       .  S
C1411      C1412   1.407       .  A
C1411      C1416   1.408       .  A
C1411     Br1418   1.929       .  S
C1412      C1413   1.414       .  A
C1413      C1414   1.403       .  A
C1413     Br1708   1.903       .  S
C1414      C1415   1.403       .  A
C1414     Br1707   1.930       .  S
C1415      C1416   1.410       .  A
C1416     Br1417   1.926       .  S
C1421      C1422   1.412       .  A
C1421      C1426   1.403       .  A
C1421     Br1428   1.928       .  S
C1422      C1423   1.403       .  A
C1423      C1424   1.393       .  A
C1423     Br1430   1.896       .  S
C1424      C1425   1.400       .  A
C1424     Br1429   1.909       .  S
C1425      C1426   1.418       .  A
C1426     Br1427   1.906       .  S
C1431      C1432   1.410       .  A
C1431      C1436   1.396       .  A
C1431     Br1438   1.900       .  S
C1432      C1433   1.411       .  A
C1433      C1434   1.395       .  A
C1433     Br1440   1.938       .  S
C1434      C1435   1.406       .  A
C1434     Br1439   1.890       .  S
C1435      C1436   1.398       .  A
C1436     Br1437   1.922       .  S
C1441      H1442   1.101       .  S
C1441      C1447   1.611       .  S
C1441      C1446   1.633       .  S
C1441      C1445   1.612       .  S
C1443      H1444   1.100       .  S
C1443      C1449   1.604       .  S
C1443      C1448   1.613       .  S
C1443      C1450   1.608       .  S
C1445      C1448   1.341       .  D
C1445      C1479   1.542       .  S
C1446      C1449   1.388       .  D
C1446      N1468   1.509       .  S
C1447      C1450   1.427       .  D
C1447      N1496   1.534       .  S
C1448      C1486   1.532       .  S
C1449      N1461   1.506       .  S
C1450      N1489   1.523       .  S
C1451      H1452   1.100       .  S
C1451      C1457   1.613       .  S
C1451      C1456   1.581       .  S
C1451      C1455   1.616       .  S
C1453      H1454   1.096       .  S
C1453      C1459   1.582       .  S
C1453      C1458   1.603       .  S
C1453      C1460   1.599       .  S
C1455      C1458   1.385       .  D
C1455      N1482   1.503       .  S
C1456      C1459   1.328       .  D
C1456      C1493   1.506       .  S
C1457      C1460   1.346       .  D
C1457      C1465   1.523       .  S
C1458      N1475   1.495       .  S
C1459      C1500   1.504       .  S
C1460      C1472   1.537       .  S
N1461      C1465   1.392       .  A
N1461      C1462   1.362       .  A
C1462      C1463   1.379       .  A
C1462      C1576   1.478       .  S
C1463      C1464   1.346       .  A
C1463      H1466   1.080       .  S
C1464      C1465   1.374       .  A
C1464      H1467   1.080       .  S
N1468      C1472   1.406       .  A
N1468      C1469   1.362       .  A
C1469      C1470   1.378       .  A
C1469      C1566   1.475       .  S
C1470      C1471   1.340       .  A
C1470      H1473   1.081       .  S
C1471      C1472   1.373       .  A
C1471      H1474   1.078       .  S
N1475      C1476   1.366       .  A
C1476      C1556   1.469       .  S
C1477      C1478   1.347       .  A
C1477      H1480   1.078       .  S
C1478      C1479   1.363       .  A
C1478      H1481   1.059       .  S
N1482      C1483   1.374       .  A
C1483      C1546   1.487       .  S
C1484      C1485   1.331       .  A
C1484      H1487   1.082       .  S
C1485      C1486   1.362       .  A
C1485      H1488   1.060       .  S
N1489      C1490   1.391       .  A
C1490      C1536   1.547       .  S
C1491      C1492   1.338       .  A
C1491      H1494   1.071       .  S
C1492      C1493   1.345       .  A
C1492      H1495   1.069       .  S
N1496      C1497   1.402       .  A
C1497      C1526   1.553       .  S
C1498      C1499   1.340       .  A
C1498      H1501   1.059       .  S
C1499      C1500   1.344       .  A
C1499      H1502   1.071       .  S
Fe1503     O1519   2.088       .  S
Fe1503     O1660   2.079   1_554  S
Fe1503     O1658   1.972   1_554  S
Fe1504     O1655   2.000       .  S
Fe1504     O1515   2.034       .  S
Fe1504     O1514   1.968       .  S
Fe1505     O1667   2.074       .  S
Fe1505     O1510   2.032       .  S
Fe1505     O1661   2.054       .  S
Fe1505     O1506   2.099       .  S
O1507      C1521   1.260       .  A
O1508      C1513   1.275       .  A
O1509      C1512   1.275       .  A
O1511     Fe1648   2.035   1_554  S
O1511      C1524   1.259       .  A
C1512      C1539   1.496       .  S
C1513      C1529   1.499       .  S
O1514     Fe1647   1.979       .  S
O1515      C1518   1.259       .  A
O1516     Fe1647   2.068       .  S
O1516      C1518   1.267       .  A
O1517     Fe1649   2.064   1_554  S
C1518      C1569   1.465       .  S
O1519      C1524   1.271       .  A
O1520      C1522   1.265       .  A
C1521      C1549   1.483       .  S
C1522      C1559   1.463       .  S
O1523     Fe1649   2.071   1_554  S
C1524      C1579   1.476       .  S
C1525      C1526   1.428       .  A
C1525      C1530   1.431       .  A
C1525     Br1532   1.936   1_655  S
C1526      C1527   1.441       .  A
C1527      C1528   1.403       .  A
C1527     Br1534   1.882       .  S
C1528      C1529   1.386       .  A
C1528     Br1533   1.960       .  S
C1529      C1530   1.425       .  A
C1530     Br1531   1.927       .  S
C1535      C1540   1.399       .  A
C1535     Br1542   1.868       .  S
C1536      C1537   1.418       .  A
C1537      C1538   1.417       .  A
C1537     Br1544   1.939       .  S
C1538      C1539   1.405       .  A
C1538     Br1543   1.867       .  S
C1540     Br1541   1.935       .  S
C1545      C1550   1.400       .  A
C1545     Br1552   1.937       .  S
C1546      C1547   1.418       .  A
C1547      C1548   1.406       .  A
C1547     Br1554   1.933       .  S
C1548      C1549   1.409       .  A
C1548     Br1553   1.929       .  S
C1550     Br1551   1.923       .  S
C1555      C1556   1.411       .  A
C1555      C1560   1.396   1_565  A
C1555     Br1562   1.938   1_565  S
C1556      C1557   1.414       .  A
C1557      C1558   1.399       .  A
C1558      C1559   1.407       .  A
C1559      C1560   1.406   1_565  A
C1560     Br1561   1.923       .  S
C1565      C1566   1.407       .  A
C1565      C1570   1.396       .  A
C1565     Br1572   1.929       .  S
C1566      C1567   1.402       .  A
C1567      C1568   1.398       .  A
C1567     Br1574   1.902       .  S
C1568      C1569   1.407       .  A
C1568     Br1573   1.911       .  S
C1569      C1570   1.409       .  A
C1570     Br1571   1.905       .  S
C1575      C1576   1.406       .  A
C1575      C1580   1.399       .  A
C1575     Br1582   1.897       .  S
C1576      C1577   1.407       .  A
C1577      C1578   1.396       .  A
C1577     Br1584   1.932       .  S
C1578      C1579   1.410       .  A
C1578     Br1583   1.897       .  S
C1579      C1580   1.405       .  A
C1580     Br1581   1.922       .  S
C1585      H1586   1.087       .  S
C1585      C1591   1.606       .  S
C1585      C1590   1.606       .  S
C1585      C1589   1.606       .  S
C1587      H1588   1.101       .  S
C1587      C1593   1.612       .  S
C1587      C1592   1.613       .  S
C1587      C1594   1.617       .  S
C1589      C1592   1.342       .  D
C1589      C1623   1.533       .  S
C1590      C1593   1.389       .  D
C1590      N1612   1.503       .  S
C1591      C1594   1.412       .  D
C1591      N1640   1.526       .  S
C1592      C1630   1.536       .  S
C1593      N1605   1.506       .  S
C1594      N1633   1.519       .  S
C1595      H1596   1.101       .  S
C1595      C1601   1.608       .  S
C1595      C1600   1.587       .  S
C1595      C1599   1.616       .  S
C1597      H1598   1.074       .  S
C1597      C1603   1.576       .  S
C1597      C1602   1.604       .  S
C1597      C1604   1.590       .  S
C1599      C1602   1.386       .  D
C1599      N1626   1.504       .  S
C1600      C1603   1.327       .  D
C1600      C1637   1.500       .  S
C1601      C1604   1.343       .  D
C1601      C1609   1.516       .  S
C1602      N1619   1.497       .  S
C1603      C1644   1.509       .  S
C1604      C1616   1.535       .  S
N1605      C1609   1.391       .  A
N1605      C1606   1.354       .  A
C1606      C1607   1.385       .  A
C1606      C1720   1.473       .  S
C1607      C1608   1.342       .  A
C1607      H1610   1.078       .  S
C1608      C1609   1.371       .  A
C1608      H1611   1.081       .  S
N1612      C1616   1.395       .  A
N1612      C1613   1.369       .  A
C1613      C1614   1.379       .  A
C1613      C1710   1.490       .  S
C1614      C1615   1.348       .  A
C1614      H1617   1.075       .  S
C1615      C1616   1.365       .  A
C1615      H1618   1.078       .  S
N1619      C1620   1.376       .  A
C1620      C1700   1.493       .  S
C1621      C1622   1.343       .  A
C1621      H1624   1.079       .  S
C1622      C1623   1.361       .  A
C1622      H1625   1.059       .  S
N1626      C1627   1.371       .  A
C1627      C1690   1.480       .  S
C1628      C1629   1.331       .  A
C1628      H1631   1.084       .  S
C1629      C1630   1.365       .  A
C1629      H1632   1.064       .  S
N1633      C1634   1.386       .  A
C1634      C1680   1.530       .  S
C1635      C1636   1.333       .  A
C1635      H1638   1.065       .  S
C1636      C1637   1.348       .  A
C1636      H1639   1.076       .  S
N1640      C1641   1.377       .  A
C1641      C1670   1.560       .  S
C1642      C1643   1.339       .  A
C1642      H1645   1.070       .  S
C1643      C1644   1.346       .  A
C1643      H1646   1.070       .  S
Fe1647     O1663   2.091       .  S
Fe1648     O1659   2.012       .  S
Fe1648     O1658   1.969       .  S
Fe1649     O1654   2.029       .  S
Fe1649     O1650   2.118       .  S
O1651      C1665   1.257       .  A
O1652      C1657   1.276       .  A
O1653      C1656   1.266       .  A
O1655      C1668   1.256       .  A
C1656      C1683   1.483       .  S
C1657      C1673   1.519       .  S
O1659      C1662   1.258       .  A
O1660      C1662   1.270       .  A
C1662      C1713   1.469       .  S
O1663      C1668   1.271       .  A
O1664      C1666   1.265       .  A
C1665      C1693   1.482       .  S
C1666      C1703   1.467       .  S
C1668      C1723   1.461       .  S
C1669      C1670   1.423       .  A
C1669      C1674   1.416       .  A
C1669     Br1676   1.947       .  S
C1670      C1671   1.445       .  A
C1671      C1672   1.425       .  A
C1671     Br1678   1.904       .  S
C1672      C1673   1.396       .  A
C1672     Br1677   1.927       .  S
C1673      C1674   1.405       .  A
C1674     Br1675   1.881       .  S
C1679      C1684   1.398       .  A
C1679     Br1686   1.887       .  S
C1680      C1681   1.414       .  A
C1681      C1682   1.416       .  A
C1681     Br1688   1.932       .  S
C1682      C1683   1.409       .  A
C1682     Br1687   1.881       .  S
C1684     Br1685   1.927       .  S
C1689      C1694   1.409       .  A
C1689     Br1696   1.932       .  S
C1690      C1691   1.415       .  A
C1691      C1692   1.402       .  A
C1691     Br1698   1.930       .  S
C1692      C1693   1.407       .  A
C1692     Br1697   1.928       .  S
C1694     Br1695   1.935       .  S
C1699      C1700   1.410       .  A
C1699      C1704   1.400   1_565  A
C1699     Br1706   1.936   1_565  S
C1700      C1701   1.425       .  A
C1701      C1702   1.400       .  A
C1702      C1703   1.400       .  A
C1703      C1704   1.410   1_565  A
C1704     Br1705   1.922       .  S
C1709      C1710   1.414       .  A
C1709      C1714   1.405       .  A
C1709     Br1716   1.924       .  S
C1710      C1711   1.415       .  A
C1711      C1712   1.402       .  A
C1711     Br1718   1.906       .  S
C1712      C1713   1.401       .  A
C1712     Br1717   1.926       .  S
C1713      C1714   1.398       .  A
C1714     Br1715   1.917       .  S
C1719      C1720   1.399       .  A
C1719      C1724   1.391       .  A
C1719     Br1726   1.906       .  S
C1720      C1721   1.411       .  A
C1721      C1722   1.396       .  A
C1721     Br1728   1.933       .  S
C1722      C1723   1.412       .  A
C1722     Br1727   1.897       .  S
C1723      C1724   1.398       .  A
C1724     Br1725   1.904       .  S
