geometry optimzed in LAMMPS
_audit_creation_date              2020-11-30 
_audit_creation_method            'lammps2cif' 
_symmetry_space_group_name_H-M    'P1' 
_symmetry_Int_Tables_number       1 
_symmetry_cell_setting            triclinic 
loop_ 
_symmetry_equiv_pos_as_xyz 
  x,y,z 
_cell_length_a                    48.37834806 
_cell_length_b                    48.361891480916405 
_cell_length_c                    48.37237936803657 
_cell_angle_alpha                 89.94898755541892 
_cell_angle_beta                  89.87417118332463 
_cell_angle_gamma                 89.94926406514215 
loop_ 
_atom_site_label 
_atom_site_type_symbol 
_atom_site_fract_x 
_atom_site_fract_y 
_atom_site_fract_z 
_atom_site_charge 
O1          O  0.94970140  0.99887868  0.95166176    -0.78400
C2          C  0.02085346  0.94817125  0.94572522     0.82700
O3          O  0.95771052  0.96473287  0.04462700    -0.79500
O4          O  0.05687341  0.97769817  0.02454854    -0.81000
O5          O  0.02508844  0.06041147  0.97837144    -0.80800
O6          O  0.95917223  0.04339743  0.95793280    -0.79400
Zn7        Zn  0.97369668  0.97669984  0.97685781     1.55700
O8          O  0.05770260  0.02768110  0.97807250    -0.80800
Cd9        Cd  0.98883859  0.04005902  0.98916612     1.59700
Cd10       Cd  0.98951795  0.99350191  0.03870586     1.59600
O11         O  0.97499596  0.06099179  0.02392465    -0.80800
O12         O  0.99716707  0.00036593  0.99839686    -1.91300
Cd13       Cd  0.03681318  0.99165499  0.98917064     1.59900
O14         O  0.97834656  0.03022739  0.05790150    -0.80700
O15         O  0.03993631  0.96217215  0.95740222    -0.79400
C16         C  0.94384571  0.95143102  0.02660061     0.83100
C17         C  0.94565811  0.02423015  0.94589780     0.82800
O18         O  0.99565140  0.95121436  0.95265134    -0.78300
C19         C  0.05027627  0.05292124  0.97586658     0.83600
O20         O  0.94847842  0.95440189  0.00085960    -0.78400
C21         C  0.97342388  0.05476421  0.04946874     0.83700
C22         C  0.04987368  0.97513356  0.04990880     0.84100
O23         O  0.02528108  0.98001944  0.05818721    -0.80900
O24         O  0.99519952  0.29533159  0.30184776    -0.78400
C25         C  0.94384509  0.29852031  0.22980037     0.82700
O26         O  0.95812370  0.20211310  0.29001722    -0.79500
O27         O  0.97660090  0.22209552  0.19320239    -0.81000
O28         O  0.05771205  0.26870668  0.22751929    -0.80800
O29         O  0.03973206  0.28786423  0.29307472    -0.79400
Zn30       Zn  0.97303480  0.26976913  0.27797946     1.55700
O31         O  0.02564127  0.27020713  0.19447285    -0.80800
Cd32       Cd  0.03659613  0.25693961  0.26305376     1.59700
Cd33       Cd  0.98927380  0.20832993  0.26117424     1.59600
O34         O  0.05646495  0.22156055  0.27690312    -0.80800
O35         O  0.99696748  0.24839531  0.25421676    -1.91300
Cd36       Cd  0.98951580  0.25733572  0.21431551     1.59900
O37         O  0.02419831  0.18876138  0.27543243    -0.80700
O38         O  0.95917894  0.28774048  0.21119786    -0.79400
C39         C  0.94629568  0.21962240  0.30571497     0.83100
C40         C  0.02062016  0.30032572  0.30638987     0.82800
O41         O  0.94672286  0.29274104  0.25534466    -0.78300
C42         C  0.05065834  0.27278582  0.20243498     0.83600
O43         O  0.95084499  0.24546527  0.30362171    -0.78400
C44         C  0.04889749  0.19651096  0.28013461     0.83700
C45         C  0.97483698  0.19672291  0.20026686     0.84100
O46         O  0.97914012  0.18862026  0.22493543    -0.80900
O47         O  0.75008258  0.29938636  0.45277750    -0.78400
C48         C  0.80463364  0.30271031  0.52124936     0.82700
O49         O  0.78656687  0.20590491  0.46018201    -0.79500
O50         O  0.77367414  0.22578168  0.55957456    -0.81000
O51         O  0.69161880  0.27201486  0.52762061    -0.80800
O52         O  0.70587812  0.29063185  0.46166894    -0.79400
Zn53       Zn  0.77322355  0.27342531  0.47502509     1.55700
O54         O  0.72419422  0.27338245  0.56024648    -0.80800
Cd55       Cd  0.71095683  0.25988217  0.49167837     1.59700
Cd56       Cd  0.75858546  0.21161491  0.49240826     1.59600
O57         O  0.69009927  0.22408798  0.48103879    -0.80800
O58         O  0.75083673  0.25168945  0.49959691    -1.91300
Cd59       Cd  0.75995835  0.26113387  0.53909098     1.59900
O60         O  0.72240185  0.19130784  0.48290796    -0.80700
O61         O  0.79082541  0.29157252  0.54086802    -0.79400
C62         C  0.79803609  0.22390781  0.44469231     0.83100
C63         C  0.72453243  0.30425969  0.44890934     0.82800
O64         O  0.80002845  0.29660211  0.49608781    -0.78300
C65         C  0.69898068  0.27534470  0.55266283     0.83600
O66         O  0.79437671  0.24967974  0.44849476    -0.78400
C67         C  0.69732839  0.19874354  0.47995570     0.83700
C68         C  0.77706819  0.20055657  0.55249628     0.84100
O69         O  0.77278078  0.19244498  0.52782169    -0.80900
O70         O  0.79504046  0.99896952  0.79753474    -0.78400
C71         C  0.72616244  0.94398967  0.79743155     0.82700
O72         O  0.78979972  0.95906408  0.70426388    -0.79500
O73         O  0.69060486  0.97740867  0.72099623    -0.81000
O74         O  0.72193435  0.05823273  0.76653243    -0.80800
O75         O  0.78704991  0.04309854  0.78730321    -0.79400
Zn76       Zn  0.77391265  0.97571660  0.77085905     1.55700
O77         O  0.69014784  0.02498904  0.76929019    -0.80800
Cd78       Cd  0.75827443  0.03817802  0.75553315     1.59700
Cd79       Cd  0.75864359  0.98916390  0.70794274     1.59600
O80         O  0.77202701  0.05778870  0.71995796    -0.80800
O81         O  0.75058999  0.99809848  0.74773706    -1.91300
Cd82       Cd  0.71091156  0.98963409  0.75649688     1.59900
O83         O  0.77075559  0.02494123  0.68753486    -0.80700
O84         O  0.70727901  0.95840592  0.78598995    -0.79400
C85         C  0.80483975  0.94827919  0.72310440     0.83100
C86         C  0.79902426  0.02460877  0.80181623     0.82800
O87         O  0.75164248  0.94867635  0.79291188    -0.78300
C88         C  0.69716748  0.05034127  0.77107553     0.83600
O89         O  0.80121254  0.95394934  0.74853666    -0.78400
C90         C  0.77483539  0.04992907  0.69493955     0.83700
C91         C  0.69760285  0.97433069  0.69577651     0.84100
O92         O  0.72268452  0.97685293  0.68788857    -0.80900
O93         O  0.29481713  0.95256860  0.25205794    -0.78400
C94         C  0.30026032  0.02411798  0.30270251     0.82700
O95         O  0.20233854  0.96341899  0.28994812    -0.79500
O96         O  0.22350161  0.06121437  0.27147021    -0.81000
O97         O  0.26951623  0.02490918  0.19009064    -0.80800
O98         O  0.28556249  0.95929269  0.20758167    -0.79400
Zn99       Zn  0.26982786  0.97653201  0.27447601     1.55700
O100        O  0.27116906  0.05840422  0.22167393    -0.80800
Cd101      Cd  0.25548882  0.99022375  0.21110208     1.59700
Cd102      Cd  0.20781435  0.99354927  0.25951858     1.59600
O103        O  0.21912747  0.97832617  0.19145803    -0.80800
O104        O  0.24792646  0.99988717  0.25085938    -1.91300
Cd105      Cd  0.25806735  0.03954537  0.25802325     1.59900
O106        O  0.18664530  0.98194849  0.22406956    -0.80700
O107        O  0.28900391  0.04288658  0.28795985    -0.79400
C108        C  0.22040698  0.94854143  0.30205746     0.83100
C109        C  0.29917972  0.94721851  0.22667040     0.82800
O110        O  0.29392090  0.99873489  0.29984988    -0.78300
C111        C  0.27431116  0.04994258  0.19688190     0.83600
O112        O  0.24614191  0.95155282  0.29753197    -0.78400
C113        C  0.19391947  0.97685770  0.19920656     0.83700
C114        C  0.19841469  0.05446908  0.27613012     0.84100
O115        O  0.18975619  0.02981485  0.27288140    -0.80900
O116        O  0.04893979  0.55208677  0.49969086    -0.78400
C117        C  0.97846159  0.55356656  0.55263832     0.82700
O118        O  0.04218639  0.45804328  0.53617110    -0.79500
O119        O  0.94372328  0.47520550  0.52150774    -0.81000
O120        O  0.97496250  0.52299739  0.43978028    -0.80800
O121        O  0.03887084  0.54463533  0.45556149    -0.79400
Zn122      Zn  0.02653135  0.52551039  0.52224971     1.55700
O123        O  0.94245050  0.52298836  0.47253208    -0.80800
Cd124      Cd  0.01107633  0.51207796  0.45949303     1.59700
Cd125      Cd  0.01142841  0.46274299  0.50609946     1.59600
O126        O  0.02572388  0.47783188  0.43828122    -0.80800
O127        O  0.00319751  0.50290003  0.49922349    -1.91300
Cd128      Cd  0.96337029  0.51097859  0.50816408     1.59900
O129        O  0.02447850  0.44398665  0.46958071    -0.80700
O130        O  0.95964814  0.54133688  0.53880085    -0.79400
C131        C  0.05668872  0.47642257  0.54831279     0.83100
C132        C  0.05163464  0.55810621  0.47422774     0.82800
O133        O  0.00399035  0.54872831  0.54832191    -0.78300
C134        C  0.94988322  0.52578028  0.44733458     0.83600
O135        O  0.05267233  0.50213796  0.54432115    -0.78400
C136        C  0.02900914  0.45253372  0.44500099     0.83700
C137        C  0.95099508  0.44990788  0.52362041     0.84100
O138        O  0.97570120  0.44216085  0.51845449    -0.80900
O139        O  0.44717675  0.29539383  0.74695344    -0.78400
C140        C  0.44747640  0.22713335  0.80393099     0.82700
O141        O  0.54026941  0.28662108  0.78887634    -0.79500
O142        O  0.52222782  0.18836336  0.76839019    -0.81000
O143        O  0.47768889  0.22101484  0.68887431    -0.80800
O144        O  0.45978990  0.28786744  0.70325053    -0.79400
Zn145      Zn  0.47374847  0.27401314  0.77061688     1.55700
O146        O  0.47196035  0.19008925  0.72237605    -0.80800
Cd147      Cd  0.49023683  0.25728941  0.70844024     1.59700
Cd148      Cd  0.53634136  0.25650844  0.75829665     1.59600
O149        O  0.52704267  0.26938818  0.68936013    -0.80800
O150        O  0.49661882  0.24963687  0.74871306    -1.91300
Cd151      Cd  0.48691454  0.21013609  0.75729955     1.59900
O152        O  0.55760161  0.27007213  0.72364329    -0.80700
O153        O  0.45842280  0.20777797  0.78969842    -0.79400
C154        C  0.52218172  0.30334995  0.79834821     0.83100
C155        C  0.44436826  0.29974331  0.72115339     0.82800
O156        O  0.45189003  0.25249452  0.79846607    -0.78300
C157        C  0.47108836  0.19673354  0.69682913     0.83600
O158        O  0.49675025  0.30130940  0.79193300    -0.78400
C159        C  0.55166830  0.27302354  0.69816265     0.83700
C160        C  0.54743661  0.19498894  0.77236671     0.84100
O161        O  0.55569838  0.21994760  0.77011932    -0.80900
O162        O  0.79582672  0.75723056  0.95291215    -0.78400
C163        C  0.72302276  0.80693058  0.94921702     0.82700
O164        O  0.78548368  0.79345090  0.04594242    -0.79500
O165        O  0.68753553  0.77540306  0.02493450    -0.81000
O166        O  0.72460605  0.69370279  0.97935275    -0.80800
O167        O  0.78991742  0.71270316  0.96275336    -0.79400
Zn168      Zn  0.77146682  0.77894895  0.97836311     1.55700
O169        O  0.69045417  0.72463246  0.97901801    -0.80800
Cd170      Cd  0.75899404  0.71540100  0.99273955     1.59700
Cd171      Cd  0.75511087  0.76332928  0.04059839     1.59600
O172        O  0.77146906  0.69566651  0.02881135    -0.80800
O173        O  0.74878976  0.75488523  0.00049314    -1.91300
Cd174      Cd  0.70903539  0.76140481  0.99068516     1.59900
O175        O  0.76683822  0.72777112  0.06156583    -0.80700
O176        O  0.70476071  0.79100171  0.95962662    -0.79400
C177        C  0.79968577  0.80622668  0.02773868     0.83100
C178        C  0.80175778  0.73188043  0.94902070     0.82800
O179        O  0.74848902  0.80457125  0.95531558    -0.78300
C180        C  0.69925124  0.69998765  0.97569337     0.83600
O181        O  0.79618353  0.80202305  0.00202127    -0.78400
C182        C  0.77251805  0.70310564  0.05409215     0.83700
C183        C  0.69410694  0.78009657  0.05001300     0.84100
O184        O  0.71872694  0.77670593  0.05874089    -0.80900
O185        O  0.29563402  0.25404742  0.95222830    -0.78400
C186        C  0.22370537  0.30406403  0.95152456     0.82700
O187        O  0.28956634  0.29046039  0.04622675    -0.79500
O188        O  0.18995236  0.27177633  0.02917247    -0.81000
O189        O  0.22508053  0.19070564  0.98163465    -0.80800
O190        O  0.28977316  0.20953372  0.96230887    -0.79400
Zn191      Zn  0.27279419  0.27586434  0.97916017     1.55700
O192        O  0.19093696  0.22163205  0.98236058    -0.80800
Cd193      Cd  0.26008137  0.21244794  0.99345136     1.59700
Cd194      Cd  0.25837315  0.26043665  0.04198233     1.59600
O195        O  0.27392746  0.19244992  0.02865203    -0.80800
O196        O  0.25046052  0.25197319  0.00201920    -1.91300
Cd197      Cd  0.21028042  0.25848406  0.99361195     1.59900
O198        O  0.27089466  0.22438925  0.06179118    -0.80700
O199        O  0.20558959  0.28826213  0.96247439    -0.79400
C200        C  0.30353411  0.30276442  0.02744329     0.83100
C201        C  0.30083019  0.22862528  0.94784217     0.82800
O202        O  0.24929620  0.30180733  0.95710106    -0.78300
C203        C  0.19955702  0.19684850  0.97927932     0.83600
O204        O  0.29891873  0.29842785  0.00191550    -0.78400
C205        C  0.27601078  0.19971221  0.05389087     0.83700
C206        C  0.19716635  0.27589791  0.05422568     0.84100
O207        O  0.22221910  0.27293020  0.06198060    -0.80900
O208        O  0.75227823  0.45267138  0.29834872    -0.78400
C209        C  0.80753907  0.45168786  0.22852714     0.82700
O210        O  0.79152448  0.54561804  0.29041784    -0.79500
O211        O  0.77344022  0.52796686  0.19118981    -0.81000
O212        O  0.69337480  0.48147066  0.22486315    -0.80800
O213        O  0.70833785  0.46430667  0.29151786    -0.79400
Zn214      Zn  0.77533347  0.47853160  0.27566533     1.55700
O215        O  0.72604716  0.47905705  0.19226374    -0.80800
Cd216      Cd  0.71323014  0.49419709  0.26052754     1.59700
Cd217      Cd  0.76222852  0.54125053  0.25924213     1.59600
O218        O  0.69351055  0.53066546  0.27179582    -0.80800
O219        O  0.75317725  0.50142846  0.25195182    -1.91300
Cd220      Cd  0.76166883  0.49236113  0.21227425     1.59900
O221        O  0.72702922  0.56221083  0.27116982    -0.80700
O222        O  0.79348065  0.46309830  0.20931291    -0.79400
C223        C  0.80196443  0.52699224  0.30588508     0.83100
C224        C  0.72666719  0.44961366  0.30353831     0.82800
O225        O  0.80225631  0.45613952  0.25389478    -0.78300
C226        C  0.70081871  0.47732734  0.19988876     0.83600
O227        O  0.79696719  0.50147204  0.30210869    -0.78400
C228        C  0.70172399  0.55562138  0.27417463     0.83700
C229        C  0.77735155  0.55309326  0.19823939     0.84100
O230        O  0.77482541  0.56093865  0.22327710    -0.80900
O231        O  0.45101557  0.95118570  0.49554506    -0.78400
C232        C  0.44715734  0.02587715  0.44641833     0.82700
O233        O  0.54328397  0.96378501  0.45572040    -0.79500
O234        O  0.52319931  0.06082467  0.48303594    -0.81000
O235        O  0.47941219  0.02126613  0.56028970    -0.80800
O236        O  0.46214410  0.95610713  0.53992872    -0.79400
Zn237      Zn  0.47593342  0.97632390  0.47349352     1.55700
O238        O  0.47443406  0.05557864  0.52980422    -0.80800
Cd239      Cd  0.49201722  0.98727221  0.53722147     1.59700
Cd240      Cd  0.53839740  0.99240513  0.48775306     1.59600
O241        O  0.52887984  0.97516276  0.55573137    -0.80800
O242        O  0.49846037  0.99847173  0.49769249    -1.91300
Cd243      Cd  0.48809093  0.03847410  0.49279677     1.59900
O244        O  0.56020927  0.97925764  0.52208951    -0.80700
O245        O  0.45852885  0.04402205  0.46177872    -0.79400
C246        C  0.52487012  0.95015895  0.44269816     0.83100
C247        C  0.44778554  0.94477046  0.52092718     0.82800
O248        O  0.45244314  0.00022848  0.44908835    -0.78300
C249        C  0.47386956  0.04641331  0.55453670     0.83600
O250        O  0.49924836  0.95316227  0.44800813    -0.78400
C251        C  0.55386173  0.97443932  0.54722225     0.83700
C252        C  0.54840576  0.05465406  0.47836082     0.84100
O253        O  0.55688412  0.02968665  0.47765127    -0.80900
O254        O  0.00024157  0.69903994  0.70520898    -0.78400
C255        C  0.05282917  0.77189687  0.69874531     0.82700
O256        O  0.04068320  0.70761291  0.79432421    -0.79500
O257        O  0.02430131  0.80760616  0.77894602    -0.81000
O258        O  0.94163302  0.77532816  0.73118023    -0.80800
O259        O  0.95627128  0.70831073  0.71505587    -0.79400
Zn260      Zn  0.02367191  0.72414841  0.72803596     1.55700
O261        O  0.97432066  0.80789211  0.73035747    -0.80800
Cd262      Cd  0.96162043  0.73969600  0.74445090     1.59700
Cd263      Cd  0.01141468  0.73913536  0.79101676     1.59600
O264        O  0.94255434  0.72789061  0.78112649    -0.80800
O265        O  0.00178896  0.74770564  0.75152194    -1.91300
Cd266      Cd  0.01023677  0.78768541  0.74319576     1.59900
O267        O  0.97627399  0.72749399  0.81251786    -0.80700
O268        O  0.04032135  0.79097754  0.71207531    -0.79400
C269        C  0.05306977  0.69436262  0.77518643     0.83100
C270        C  0.97458140  0.69436471  0.70211604     0.82800
O271        O  0.04786311  0.74644194  0.70317373    -0.78300
C272        C  0.94928087  0.80024163  0.72694705     0.83600
O273        O  0.04821029  0.69926078  0.74983995    -0.78400
C274        C  0.95097871  0.72431132  0.80586003     0.83700
C275        C  0.02946854  0.79935743  0.80351959     0.84100
O276        O  0.02625929  0.77414621  0.81063309    -0.80900
O277        O  0.45007862  0.79640520  0.25263896    -0.78400
C278        C  0.44844128  0.72224804  0.30178769     0.82700
O279        O  0.54349697  0.78879246  0.28784951    -0.79500
O280        O  0.52633810  0.68990321  0.26782322    -0.81000
O281        O  0.47861980  0.72489804  0.18843875    -0.80800
O282        O  0.45865832  0.78943314  0.20791687    -0.79400
Zn283      Zn  0.47609087  0.77235984  0.27456836     1.55700
O284        O  0.47832627  0.69123449  0.21993940    -0.80800
Cd285      Cd  0.49007350  0.76009452  0.21026802     1.59700
Cd286      Cd  0.53851003  0.75839049  0.25773765     1.59600
O287        O  0.52504906  0.77491693  0.19024065    -0.80800
O288        O  0.49858980  0.75049341  0.24984685    -1.91300
Cd289      Cd  0.49054942  0.71027523  0.25619152     1.59900
O290        O  0.55803036  0.77154342  0.22223678    -0.80700
O291        O  0.46018557  0.70449806  0.28622819    -0.79400
C292        C  0.52524621  0.80135867  0.30215670     0.83100
C293        C  0.44524995  0.80144558  0.22721544     0.82800
O294        O  0.45327166  0.74804435  0.29961187    -0.78300
C295        C  0.47527160  0.69958503  0.19513895     0.83600
O296        O  0.49951887  0.79680121  0.29889870    -0.78400
C297        C  0.55021846  0.77705858  0.19771140     0.83700
C298        C  0.55139733  0.69728328  0.27122581     0.84100
O299        O  0.55894282  0.72247720  0.26923132    -0.80900
O300        O  0.19848319  0.74590309  0.54251645    -0.78400
C301        C  0.19713822  0.69959247  0.46628772     0.82700
O302        O  0.29048893  0.70645681  0.53423967    -0.79500
O303        O  0.27528689  0.73289289  0.43604973    -0.81000
O304        O  0.22816833  0.81193347  0.47511280    -0.80800
O305        O  0.21079196  0.79017431  0.53944060    -0.79400
Zn306      Zn  0.22412480  0.72437651  0.51775141     1.55700
O307        O  0.22766501  0.78229470  0.43983470    -0.80800
Cd308      Cd  0.24105965  0.78833835  0.50872283     1.59700
Cd309      Cd  0.28776470  0.73882229  0.50527813     1.59600
O310        O  0.27731286  0.80667830  0.52265480    -0.80800
O311        O  0.24815420  0.74896526  0.49734432    -1.91300
Cd312      Cd  0.23990743  0.74492826  0.45685139     1.59900
O313        O  0.30887050  0.77316510  0.52045444    -0.80700
O314        O  0.20933863  0.71564342  0.44932154    -0.79400
C315        C  0.27121768  0.69293598  0.54627561     0.83100
C316        C  0.19577402  0.77108671  0.54979042     0.82800
O317        O  0.20140332  0.70083639  0.49220900    -0.78300
C318        C  0.22456586  0.80660823  0.44954342     0.83600
O319        O  0.24588018  0.69836553  0.54173151    -0.78400
C320        C  0.30208858  0.79815681  0.52574218     0.83700
C321        C  0.30002038  0.72733908  0.44321600     0.84100
O322        O  0.30759353  0.72770534  0.46851836    -0.80900
O323        O  0.30065774  0.45247691  0.74745001    -0.78400
C324        C  0.30392241  0.52055768  0.80259785     0.82700
O325        O  0.20861385  0.45793863  0.78911664    -0.79500
O326        O  0.22540225  0.55718873  0.77376999    -0.81000
O327        O  0.27023436  0.52722508  0.69025207    -0.80800
O328        O  0.28964928  0.46137546  0.70368592    -0.79400
Zn329      Zn  0.27487523  0.47369130  0.77173996     1.55700
O330        O  0.27342435  0.55888121  0.72350500    -0.80800
Cd331      Cd  0.25828698  0.49076536  0.70965901     1.59700
Cd332      Cd  0.21198275  0.48935612  0.75946884     1.59600
O333        O  0.22189240  0.47843760  0.69037348    -0.80800
O334        O  0.25160394  0.49781098  0.75009390    -1.91300
Cd335      Cd  0.26079709  0.53749005  0.75910030     1.59900
O336        O  0.19052770  0.47760543  0.72417077    -0.80700
O337        O  0.29171357  0.53991569  0.78940972    -0.79400
C338        C  0.22738643  0.44279071  0.79982612     0.83100
C339        C  0.30465782  0.44920479  0.72166663     0.82800
O340        O  0.29854752  0.49525183  0.79783725    -0.78300
C341        C  0.27552254  0.55183675  0.69810570     0.83600
O342        O  0.25284315  0.44658165  0.79431889    -0.78400
C343        C  0.19705849  0.47503935  0.69873299     0.83700
C344        C  0.20042986  0.54964929  0.77800383     0.84100
O345        O  0.19260956  0.52483295  0.77376926    -0.80900
O346        O  0.50250725  0.44780075  0.95368485    -0.78400
C347        C  0.45218440  0.44556506  0.02638464     0.82700
O348        O  0.46427667  0.54052467  0.96036426    -0.79500
O349        O  0.48451240  0.52375458  0.06008164    -0.81000
O350        O  0.56530080  0.47671850  0.02371886    -0.80800
O351        O  0.54685797  0.45897881  0.95813916    -0.79400
Zn352      Zn  0.48033805  0.47365366  0.97713771     1.55700
O353        O  0.53426569  0.47685521  0.05783882    -0.80800
Cd354      Cd  0.54351191  0.48935189  0.98890451     1.59700
Cd355      Cd  0.49425687  0.53655116  0.99139842     1.59600
O356        O  0.56278646  0.52578299  0.97658172    -0.80800
O357        O  0.50380164  0.49683553  0.99916285    -1.91300
Cd358      Cd  0.49723877  0.48822953  0.03935992     1.59900
O359        O  0.52963692  0.55775276  0.97999867    -0.80700
O360        O  0.46717343  0.45729888  0.04464437    -0.79400
C361        C  0.45201239  0.52148556  0.94686091     0.83100
C362        C  0.52782435  0.44409834  0.94756867     0.82800
O363        O  0.45518687  0.45080802  0.00076646    -0.78300
C364        C  0.55907510  0.47396918  0.04921705     0.83600
O365        O  0.45684451  0.49605762  0.95161693    -0.78400
C366        C  0.55467094  0.55087045  0.97530713     0.83700
C367        C  0.47934078  0.54852903  0.05251763     0.84100
O368        O  0.48120910  0.55598990  0.02728974    -0.80900
C369        C  0.36454232  0.55151376  0.84291652    -0.11300
C370        C  0.36626520  0.53283936  0.86507820     0.15300
C371        C  0.34623016  0.51178208  0.86755655     0.02200
C372        C  0.32602339  0.50885254  0.84719102    -0.15600
C373        C  0.32474305  0.52675277  0.82431134    -0.10400
C374        C  0.34417288  0.54859294  0.82242104     0.08900
C375        C  0.39072034  0.53332714  0.88354633     0.09900
S376        S  0.34608220  0.48715668  0.89563124    -0.24800
H377        H  0.31120379  0.49216431  0.84916837     0.20200
S378        S  0.34556689  0.57194103  0.79342494    -0.30500
H379        H  0.38003554  0.56754797  0.84079432     0.10500
C380        C  0.41155397  0.51315203  0.88083028     0.03700
C381        C  0.43183093  0.51075396  0.90128870    -0.12800
C382        C  0.43192615  0.52807765  0.92461927    -0.08400
C383        C  0.41186223  0.54934716  0.92652251     0.07200
C384        C  0.39168311  0.55192968  0.90579383    -0.13500
S385        S  0.41182939  0.48983718  0.85162949    -0.30400
H386        H  0.44743134  0.49479288  0.89942219     0.11400
S387        S  0.40942761  0.57227820  0.95576034    -0.27500
H388        H  0.37561835  0.56741305  0.90791349     0.08600
H389        H  0.34140244  0.55124308  0.77344028     0.27100
H390        H  0.43497027  0.47419847  0.85972930     0.21900
H391        H  0.41423928  0.55159118  0.97564293     0.27200
H392        H  0.35739191  0.50497890  0.91554349     0.16000
C393        C  0.26526470  0.62845935  0.59107152    -0.11300
C394        C  0.28632836  0.63270474  0.61041232     0.15300
C395        C  0.30447246  0.65535950  0.60678056     0.02200
C396        C  0.29992162  0.67417076  0.58504434    -0.15600
C397        C  0.27789820  0.67063058  0.56644238    -0.10400
C398        C  0.26112662  0.64675573  0.56906737     0.08900
C399        C  0.28773416  0.61341855  0.63437392     0.09900
S400        S  0.33332747  0.66173535  0.62942142    -0.24800
H401        H  0.31318590  0.69211760  0.58315710     0.20200
S402        S  0.23441559  0.63798753  0.54471521    -0.30500
H403        H  0.25170448  0.61075561  0.59329260     0.10500
C404        C  0.27796269  0.62105882  0.66077667     0.03700
C405        C  0.27571815  0.60092768  0.68171262    -0.12800
C406        C  0.28290681  0.57310610  0.67685881    -0.08400
C407        C  0.29443682  0.56607904  0.65077281     0.07200
C408        C  0.29619872  0.58607768  0.62984461    -0.13500
S409        S  0.26639105  0.65599185  0.66721690    -0.30400
H410        H  0.26693762  0.60664475  0.70149727     0.11400
S411        S  0.30757688  0.53212284  0.64272666    -0.27500
H412        H  0.30398877  0.58020534  0.60966103     0.08600
H413        H  0.24901733  0.64806540  0.52164050     0.27100
H414        H  0.26103590  0.65264474  0.69561543     0.21900
H415        H  0.31883691  0.52757227  0.66914995     0.27200
H416        H  0.33700025  0.63420686  0.63798636     0.16000
C417        C  0.45669412  0.61533079  0.08786278    -0.11300
C418        C  0.47013097  0.61286222  0.11341022     0.15300
C419        C  0.48428133  0.58809244  0.11969733     0.02200
C420        C  0.48529264  0.56678908  0.10013080    -0.15600
C421        C  0.47300779  0.56968621  0.07394383    -0.10400
C422        C  0.45776118  0.59406257  0.06822806     0.08900
C423        C  0.46908394  0.63639350  0.13306919     0.09900
S424        S  0.50250240  0.58278832  0.15179455    -0.24800
H425        H  0.49710963  0.54836086  0.10493339     0.20200
S426        S  0.43865434  0.59917045  0.03667228    -0.30500
H427        H  0.44526980  0.63404436  0.08319508     0.10500
C428        C  0.48335591  0.66123695  0.12766671     0.03700
C429        C  0.48347109  0.68224854  0.14764872    -0.12800
C430        C  0.46983095  0.67893946  0.17313050    -0.08400
C431        C  0.45431924  0.65455681  0.17781544     0.07200
C432        C  0.45430872  0.63354524  0.15788669    -0.13500
S433        S  0.50316453  0.66544329  0.09622418    -0.30400
H434        H  0.49554580  0.70073824  0.14400610     0.11400
S435        S  0.43383182  0.64909924  0.20851277    -0.27500
H436        H  0.44288311  0.61467956  0.16183099     0.08600
H437        H  0.43059227  0.57133563  0.03413577     0.27100
H438        H  0.51114579  0.69302954  0.10076715     0.21900
H439        H  0.42670019  0.67710269  0.21194536     0.27200
H440        H  0.51045979  0.61047856  0.15555076     0.16000
C441        C  0.41134621  0.71571116  0.37014230    -0.11300
C442        C  0.38532583  0.70613112  0.36174022     0.15300
C443        C  0.38153952  0.69824788  0.33382565     0.02200
C444        C  0.40307656  0.70210844  0.31472548    -0.15600
C445        C  0.42853225  0.71315814  0.32302548    -0.10400
C446        C  0.43302831  0.71873105  0.35126779     0.08900
C447        C  0.36197098  0.70849254  0.38164071     0.09900
S448        S  0.34952758  0.68402496  0.32120935    -0.24800
H449        H  0.39957945  0.69750916  0.29308615     0.20200
S450        S  0.46586025  0.73015211  0.36445764    -0.30500
H451        H  0.41455440  0.72178216  0.39146051     0.10500
C452        C  0.36230886  0.69525840  0.40765792     0.03700
C453        C  0.34173577  0.70152984  0.42725529    -0.12800
C454        C  0.32072539  0.72077980  0.42144732    -0.08400
C455        C  0.32032800  0.73367866  0.39511608     0.07200
C456        C  0.34065789  0.72717390  0.37558437    -0.13500
S457        S  0.38867330  0.67006624  0.41576973    -0.30400
H458        H  0.34198436  0.69137633  0.44720629     0.11400
S459        S  0.29594413  0.76028778  0.38570259    -0.27500
H460        H  0.34068971  0.73791151  0.35590388     0.08600
H461        H  0.48212357  0.71793633  0.34365377     0.27100
H462        H  0.38079967  0.66564827  0.44343171     0.21900
H463        H  0.29760285  0.77423388  0.41116976     0.27200
H464        H  0.34105770  0.67263003  0.34660602     0.16000
C465        C  0.09206372  0.80214081  0.63713030    -0.11300
C466        C  0.11538074  0.78480952  0.63675260     0.15300
C467        C  0.11872124  0.76496982  0.65787288     0.02200
C468        C  0.09829729  0.76200081  0.67805084    -0.15600
C469        C  0.07442732  0.77853842  0.67805263    -0.10400
C470        C  0.07145320  0.79910926  0.65744550     0.08900
C471        C  0.13401866  0.78488068  0.61241125     0.09900
S472        S  0.14759192  0.74137416  0.65906448    -0.24800
H473        H  0.10088737  0.74620075  0.69375230     0.20200
S474        S  0.04106175  0.82048909  0.65458557    -0.30500
H475        H  0.08922233  0.81709906  0.62068640     0.10500
C476        C  0.12874169  0.76734749  0.58980550     0.03700
C477        C  0.14896666  0.76396010  0.56929256    -0.12800
C478        C  0.17445960  0.77778559  0.57080643    -0.08400
C479        C  0.17918965  0.79629517  0.59296306     0.07200
C480        C  0.15872990  0.79999348  0.61323165    -0.13500
S481        S  0.09653078  0.74858172  0.58758936    -0.30400
H482        H  0.14512801  0.75006036  0.55219168     0.11400
S483        S  0.21163706  0.81386596  0.59795707    -0.27500
H484        H  0.16284231  0.81331036  0.63074962     0.08600
H485        H  0.02224359  0.79954328  0.66186085     0.27100
H486        H  0.10229437  0.73481823  0.56262557     0.21900
H487        H  0.22815189  0.79112597  0.59038915     0.27200
H488        H  0.16755922  0.76066948  0.65063987     0.16000
C489        C  0.11250096  0.65327251  0.80694493    -0.11300
C490        C  0.11420739  0.63105926  0.78835144     0.15300
C491        C  0.09460166  0.62891294  0.76690799     0.02200
C492        C  0.07436294  0.64930051  0.76404195    -0.15600
C493        C  0.07334954  0.67233552  0.78171926    -0.10400
C494        C  0.09254183  0.67408469  0.80368803     0.08900
C495        C  0.13762027  0.61143188  0.79036921     0.09900
S496        S  0.09462543  0.60110345  0.74202608    -0.24800
H497        H  0.05962860  0.64749141  0.74728655     0.20200
S498        S  0.09397997  0.70308153  0.82698819    -0.30500
H499        H  0.12759910  0.65500792  0.82337382     0.10500
C500        C  0.16414107  0.61888176  0.78091502     0.03700
C501        C  0.18477704  0.59861390  0.77883460    -0.12800
C502        C  0.17958419  0.57089614  0.78608857    -0.08400
C503        C  0.15353545  0.56414630  0.79785275     0.07200
C504        C  0.13278358  0.58432830  0.79938557    -0.13500
S505        S  0.17110007  0.65373445  0.76933087    -0.30400
H506        H  0.20457642  0.60417439  0.76999795     0.11400
S507        S  0.14534618  0.53042156  0.81146768    -0.27500
H508        H  0.11251759  0.57876400  0.80717820     0.08600
H509        H  0.09027013  0.72313321  0.80622943     0.27100
H510        H  0.19957711  0.65018853  0.76457028     0.21900
H511        H  0.17187310  0.52579601  0.82244476     0.27200
H512        H  0.12344961  0.59778497  0.74061637     0.16000
C513        C  0.52747275  0.84237203  0.36867240    -0.11300
C514        C  0.54230452  0.86584202  0.36049162     0.15300
C515        C  0.55453946  0.86651846  0.33393777     0.02200
C516        C  0.55005018  0.84447373  0.31556644    -0.15600
C517        C  0.53369760  0.82172811  0.32329111    -0.10400
C518        C  0.52328130  0.82032876  0.35054729     0.08900
C519        C  0.54127216  0.89018236  0.37905623     0.09900
S520        S  0.57469797  0.89546878  0.32188372    -0.24800
H521        H  0.55831914  0.84565672  0.29475952     0.20200
S522        S  0.50410959  0.79112876  0.36338911    -0.30500
H523        H  0.51827004  0.84163237  0.38911984     0.10500
C524        C  0.52053526  0.91035864  0.37573538     0.03700
C525        C  0.51646090  0.93023878  0.39641438    -0.12800
C526        C  0.53267358  0.93049231  0.42049498    -0.08400
C527        C  0.55422496  0.91087024  0.42324247     0.07200
C528        C  0.55830311  0.89099316  0.40248654    -0.13500
S529        S  0.49806892  0.90972655  0.34593657    -0.30400
H530        H  0.50001846  0.94527964  0.39418121     0.11400
S531        S  0.57569914  0.90862231  0.45355092    -0.27500
H532        H  0.57397692  0.87521324  0.40523075     0.08600
H533        H  0.51762596  0.77130604  0.34691797     0.27100
H534        H  0.48359386  0.93423587  0.35197467     0.21900
H535        H  0.55414931  0.91358716  0.47247772     0.27200
H536        H  0.58300000  0.90473803  0.34810849     0.16000
C537        C  0.40939253  0.88291099  0.55197885    -0.11300
C538        C  0.38527381  0.88286502  0.53584464     0.15300
C539        C  0.38123730  0.90422294  0.51634509     0.02200
C540        C  0.40158644  0.92443105  0.51274624    -0.15600
C541        C  0.42633660  0.92390013  0.52789264    -0.10400
C542        C  0.43004246  0.90296706  0.54805004     0.08900
C543        C  0.36555750  0.85940365  0.53800529     0.09900
S544        S  0.35085732  0.90655273  0.49487635    -0.24800
H545        H  0.39826699  0.94049227  0.49746119     0.20200
S546        S  0.46122396  0.89955652  0.56807675    -0.30500
H547        H  0.41264012  0.86652986  0.56692678     0.10500
C548        C  0.37188689  0.83352301  0.52620085     0.03700
C549        C  0.35121200  0.81328553  0.52416854    -0.12800
C550        C  0.32412836  0.81822129  0.53367969    -0.08400
C551        C  0.31858680  0.84342956  0.54764072     0.07200
C552        C  0.33917863  0.86379147  0.54927981    -0.13500
S553        S  0.40567105  0.82704151  0.51154452    -0.30400
H554        H  0.35583465  0.79410927  0.51360703     0.11400
S555        S  0.28586710  0.85097883  0.56387743    -0.27500
H556        H  0.33442166  0.88349791  0.55882505     0.08600
H557        H  0.47915322  0.90558091  0.54594386     0.27100
H558        H  0.40125582  0.79912576  0.50473265     0.21900
H559        H  0.28115943  0.82365765  0.57275450     0.27200
H560        H  0.34761138  0.87796074  0.49087027     0.16000
C561        C  0.63428401  0.48072220  0.15821230    -0.11300
C562        C  0.64013549  0.46261819  0.13635017     0.15300
C563        C  0.66576464  0.44857961  0.13595098     0.02200
C564        C  0.68508850  0.45342679  0.15699855    -0.15600
C565        C  0.67932240  0.47179394  0.17878215    -0.10400
C566        C  0.65353033  0.48570585  0.17912432     0.08900
C567        C  0.62031352  0.46160003  0.11294906     0.09900
S568        S  0.67503765  0.42439874  0.10913205    -0.24800
H569        H  0.70477121  0.44273132  0.15638216     0.20200
S570        S  0.64468775  0.51194444  0.20413738    -0.30500
H571        H  0.61499427  0.49214727  0.15824505     0.10500
C572        C  0.59296798  0.45221146  0.11651254     0.03700
C573        C  0.57382421  0.45544600  0.09496322    -0.12800
C574        C  0.58120341  0.46828972  0.06987638    -0.08400
C575        C  0.60897676  0.47711117  0.06626727     0.07200
C576        C  0.62813767  0.47328488  0.08759594    -0.13500
S577        S  0.58238594  0.43625895  0.14861806    -0.30400
H578        H  0.55279206  0.44840770  0.09790725     0.11400
S579        S  0.62099268  0.49565680  0.03621874    -0.27500
H580        H  0.64901800  0.48098594  0.08500056     0.08600
H581        H  0.67074776  0.52485153  0.20342949     0.27100
H582        H  0.55444762  0.43242342  0.14161613     0.21900
H583        H  0.59906604  0.51480883  0.03664894     0.27200
H584        H  0.64787767  0.41620705  0.10290152     0.16000
C585        C  0.66308805  0.62434220  0.27331378    -0.11300
C586        C  0.63866462  0.61730591  0.28721810     0.15300
C587        C  0.63578768  0.59047279  0.29833701     0.02200
C588        C  0.65686979  0.57099265  0.29435423    -0.15600
C589        C  0.68102930  0.57766560  0.27956680    -0.10400
C590        C  0.68404599  0.60489454  0.26901846     0.08900
C591        C  0.61524780  0.63700607  0.28586040     0.09900
S592        S  0.60548055  0.57972673  0.31725600    -0.24800
H593        H  0.65423511  0.55034647  0.30267172     0.20200
S594        S  0.71263366  0.61566153  0.24756601    -0.30500
H595        H  0.66508821  0.64473298  0.26419666     0.10500
C596        C  0.61596495  0.66286049  0.29924740     0.03700
C597        C  0.59461771  0.68201431  0.29458315    -0.12800
C598        C  0.57264146  0.67588450  0.27662477    -0.08400
C599        C  0.57216614  0.64986416  0.26320131     0.07200
C600        C  0.59312749  0.63066405  0.26835381    -0.13500
S601        S  0.64401314  0.67135785  0.32228955    -0.30400
H602        H  0.59511595  0.70191918  0.30478940     0.11400
S603        S  0.54690958  0.64066184  0.23741309    -0.27500
H604        H  0.59296133  0.61106355  0.25749767     0.08600
H605        H  0.71169403  0.59210494  0.23051785     0.27100
H606        H  0.63413456  0.69757035  0.33014168     0.21900
H607        H  0.54715867  0.66664146  0.22427544     0.27200
H608        H  0.59819403  0.60619927  0.32682815     0.16000
C609        C  0.22112563  0.37169491  0.91233904    -0.11300
C610        C  0.20938167  0.36329948  0.88722087     0.15300
C611        C  0.19932345  0.33596016  0.88472511     0.02200
C612        C  0.20250528  0.31736030  0.90677984    -0.15600
C613        C  0.21549055  0.32547217  0.93137352    -0.10400
C614        C  0.22407051  0.35322244  0.93441970     0.08900
C615        C  0.21097690  0.38254678  0.86329355     0.09900
S616        S  0.18330316  0.32330279  0.85359261    -0.24800
H617        H  0.19598691  0.29607820  0.90423680     0.20200
S618        S  0.23959985  0.36610186  0.96574962    -0.30500
H619        H  0.22888343  0.39260683  0.91444784     0.10500
C620        C  0.19615741  0.40767956  0.86260509     0.03700
C621        C  0.20064925  0.42642395  0.84077557    -0.12800
C622        C  0.21991393  0.42065713  0.81975335    -0.08400
C623        C  0.23366778  0.39479870  0.81987938     0.07200
C624        C  0.22926523  0.37626964  0.84167600    -0.13500
S625        S  0.17182831  0.41599721  0.88972007    -0.30400
H626        H  0.19004249  0.44614760  0.84071860     0.11400
S627        S  0.25698331  0.38406260  0.79277352    -0.27500
H628        H  0.24054618  0.35689629  0.84202485     0.08600
H629        H  0.22595408  0.34770625  0.98370639     0.27100
H630        H  0.16292991  0.44138361  0.87864476     0.21900
H631        H  0.24287038  0.39783834  0.77140347     0.27200
H632        H  0.17296701  0.34901185  0.84477225     0.16000
C633        C  0.34636821  0.36120495  0.05933485    -0.11300
C634        C  0.36938620  0.36121054  0.04156535     0.15300
C635        C  0.37140871  0.34067548  0.02095468     0.02200
C636        C  0.34998266  0.32163282  0.01762315    -0.15600
C637        C  0.32630395  0.32215377  0.03450725    -0.10400
C638        C  0.32474395  0.34204871  0.05593442     0.08900
C639        C  0.38866337  0.38509875  0.04158958     0.09900
S640        S  0.39987078  0.33890779  0.99683674    -0.24800
H641        H  0.35163829  0.30645585  0.00122267     0.20200
S642        S  0.29489160  0.34565457  0.07797448    -0.30500
H643        H  0.34448227  0.37721985  0.07487736     0.10500
C644        C  0.38433595  0.40734101  0.02329830     0.03700
C645        C  0.40501892  0.42729577  0.01984496    -0.12800
C646        C  0.43017708  0.42564250  0.03423109    -0.08400
C647        C  0.43395253  0.40401626  0.05361902     0.07200
C648        C  0.41298187  0.38421985  0.05738653    -0.13500
S649        S  0.35286240  0.40963849  0.00335583    -0.30400
H650        H  0.40190462  0.44394632  0.00519114     0.11400
S651        S  0.46577560  0.39910077  0.07227052    -0.27500
H652        H  0.41640168  0.36701500  0.07133311     0.08600
H653        H  0.27547986  0.34120069  0.05683414     0.27100
H654        H  0.35846263  0.43533339  0.99090502     0.21900
H655        H  0.48307628  0.40579075  0.04983422     0.27200
H656        H  0.42020721  0.34831542  0.01521229     0.16000
C657        C  0.63338899  0.66132011  0.95649956    -0.11300
C658        C  0.63894926  0.63515654  0.96772326     0.15300
C659        C  0.66539305  0.62969888  0.97870853     0.02200
C660        C  0.68522902  0.65072865  0.97918318    -0.15600
C661        C  0.67923413  0.67751736  0.96947176    -0.10400
C662        C  0.65320437  0.68240770  0.95698951     0.08900
C663        C  0.61653316  0.61429744  0.96837141     0.09900
S664        S  0.67473670  0.59680968  0.99367198    -0.24800
H665        H  0.70501767  0.64644747  0.98873114     0.20200
S666        S  0.64401294  0.71475175  0.94088280    -0.30500
H667        H  0.61330736  0.66538309  0.94746429     0.10500
C668        C  0.59362371  0.61750141  0.98612465     0.03700
C669        C  0.57312853  0.59705445  0.98679375    -0.12800
C670        C  0.57520613  0.57309152  0.97048088    -0.08400
C671        C  0.59798649  0.57020511  0.95231608     0.07200
C672        C  0.61839718  0.59076098  0.95152917    -0.13500
S673        S  0.59133794  0.64678069  0.00924503    -0.30400
H674        H  0.55596165  0.59916951  0.00103445     0.11400
S675        S  0.60192830  0.54120869  0.92926501    -0.27500
H676        H  0.63591146  0.58840515  0.93772613     0.08600
H677        H  0.67059458  0.71975018  0.93011478     0.27100
H678        H  0.56628452  0.63932703  0.02203182     0.21900
H679        H  0.57346157  0.53772458  0.92452868     0.27200
H680        H  0.64847413  0.59062785  0.00450699     0.16000
C681        C  0.65692686  0.80320617  0.11537665    -0.11300
C682        C  0.63092735  0.79112310  0.11128466     0.15300
C683        C  0.62479929  0.77880538  0.08561068     0.02200
C684        C  0.64521981  0.77752832  0.06517298    -0.15600
C685        C  0.67201812  0.78771411  0.06992639    -0.10400
C686        C  0.67740521  0.80192920  0.09493330     0.08900
C687        C  0.61140475  0.78972140  0.13476425     0.09900
S688        S  0.59188801  0.76295541  0.07818532    -0.24800
H689        H  0.64057373  0.76680761  0.04608040     0.20200
S690        S  0.70972504  0.81902469  0.10203592    -0.30500
H691        H  0.66145702  0.81319131  0.13489873     0.10500
C692        C  0.61595470  0.77096524  0.15657224     0.03700
C693        C  0.59613662  0.76843180  0.17750184    -0.12800
C694        C  0.57158668  0.78394753  0.17696743    -0.08400
C695        C  0.56749970  0.80344221  0.15554622     0.07200
C696        C  0.58739499  0.80600852  0.13458995    -0.13500
S697        S  0.64610786  0.74883326  0.15677191    -0.30400
H698        H  0.59918466  0.75329511  0.19372249     0.11400
S699        S  0.53772793  0.82583438  0.15400746    -0.27500
H700        H  0.58405074  0.82056354  0.11788224     0.08600
H701        H  0.71427482  0.82742612  0.07453518     0.27100
H702        H  0.64018949  0.73500315  0.18168119     0.21900
H703        H  0.53438946  0.82811763  0.18281405     0.27200
H704        H  0.58730099  0.75230631  0.10484712     0.16000
C705        C  0.79759161  0.63800413  0.09100353    -0.11300
C706        C  0.78230927  0.63945326  0.11565940     0.15300
C707        C  0.76570641  0.66293942  0.12074497     0.02200
C708        C  0.76435754  0.68406284  0.10100407    -0.15600
C709        C  0.77862723  0.68214432  0.07571717    -0.10400
C710        C  0.79606797  0.65905795  0.07110393     0.08900
C711        C  0.78377044  0.61614972  0.13560376     0.09900
S712        S  0.74476398  0.66669421  0.15143905    -0.24800
H713        H  0.75082171  0.70150912  0.10488025     0.20200
S714        S  0.81739852  0.65548069  0.04070362    -0.30500
H715        H  0.81076979  0.62026408  0.08723179     0.10500
C716        C  0.77139802  0.59045238  0.12974859     0.03700
C717        C  0.77115919  0.56969562  0.15004183    -0.12800
C718        C  0.78281690  0.57404533  0.17632301    -0.08400
C719        C  0.79644849  0.59944470  0.18153520     0.07200
C720        C  0.79654268  0.62019096  0.16127802    -0.13500
S721        S  0.75411076  0.58475773  0.09715797    -0.30400
H722        H  0.76054336  0.55046515  0.14584914     0.11400
S723        S  0.81438076  0.60668561  0.21333541    -0.27500
H724        H  0.80642624  0.63980570  0.16564083     0.08600
H725        H  0.82301923  0.68390566  0.03806252     0.27100
H726        H  0.74590717  0.55733084  0.10228853     0.21900
H727        H  0.82427996  0.57953678  0.21682334     0.27200
H728        H  0.73859760  0.63846351  0.15458552     0.16000
C729        C  0.86359011  0.70078400  0.91091321    -0.11300
C730        C  0.86516566  0.71848148  0.88796936     0.15300
C731        C  0.84488893  0.73913668  0.88439747     0.02200
C732        C  0.82402662  0.74217436  0.90415559    -0.15600
C733        C  0.82292025  0.72530280  0.92781100    -0.10400
C734        C  0.84285346  0.70407455  0.93097002     0.08900
C735        C  0.88881339  0.71609192  0.86872226     0.09900
S736        S  0.84449370  0.76243820  0.85520651    -0.24800
H737        H  0.80874265  0.75831801  0.90125757     0.20200
S738        S  0.84406807  0.68166150  0.96072321    -0.30500
H739        H  0.87919858  0.68494084  0.91368418     0.10500
C740        C  0.91407937  0.72930388  0.87448261     0.03700
C741        C  0.93471481  0.73014262  0.85411304    -0.12800
C742        C  0.93057709  0.71815108  0.82796269    -0.08400
C743        C  0.90588698  0.70324280  0.82305851     0.07200
C744        C  0.88517633  0.70269002  0.84333299    -0.13500
S745        S  0.91914326  0.74703097  0.90695290    -0.30400
H746        H  0.95352715  0.74156940  0.85805527     0.11400
S747        S  0.89958210  0.68437541  0.79158208    -0.27500
H748        H  0.86585356  0.69220883  0.83911003     0.08600
H749        H  0.83916491  0.70288031  0.98000544     0.27100
H750        H  0.94665738  0.75514099  0.90215092     0.21900
H751        H  0.92734144  0.67661151  0.78755166     0.27200
H752        H  0.87325373  0.76435331  0.85174264     0.16000
C753        C  0.52633380  0.37217087  0.83585273    -0.11300
C754        C  0.54096699  0.36466117  0.85971588     0.15300
C755        C  0.55175946  0.33759939  0.86192226     0.02200
C756        C  0.54646308  0.31827974  0.84101594    -0.15600
C757        C  0.53047930  0.32534299  0.81788592    -0.10400
C758        C  0.52099501  0.35282829  0.81490549     0.08900
C759        C  0.54084590  0.38404770  0.88347792     0.09900
S760        S  0.57143763  0.32623374  0.89144227    -0.24800
H761        H  0.55393511  0.29727579  0.84336139     0.20200
S762        S  0.50210013  0.36338931  0.78445856    -0.30500
H763        H  0.51808999  0.39293326  0.83426087     0.10500
C764        C  0.55619343  0.40883546  0.88353367     0.03700
C765        C  0.55298982  0.42760839  0.90556978    -0.12800
C766        C  0.53459939  0.42202708  0.92742237    -0.08400
C767        C  0.52054120  0.39636676  0.92792399     0.07200
C768        C  0.52355980  0.37794769  0.90590658    -0.13500
S769        S  0.57950845  0.41661559  0.85541176    -0.30400
H770        H  0.56383491  0.44717833  0.90516044     0.11400
S771        S  0.49846828  0.38575056  0.95612020    -0.27500
H772        H  0.51201019  0.35874820  0.90606747     0.08600
H773        H  0.49906695  0.39139201  0.79170342     0.27100
H774        H  0.59036434  0.44106485  0.86676586     0.21900
H775        H  0.51372260  0.39927997  0.97681337     0.27200
H776        H  0.58205051  0.35240174  0.89827930     0.16000
C777        C  0.46251428  0.15683031  0.62887153    -0.11300
C778        C  0.45750685  0.12998163  0.63858453     0.15300
C779        C  0.45412178  0.12579860  0.66727561     0.02200
C780        C  0.45752883  0.14805665  0.68553593    -0.15600
C781        C  0.46364994  0.17497547  0.67600639    -0.10400
C782        C  0.46491476  0.17931348  0.64694135     0.08900
C783        C  0.45905892  0.10668272  0.61850564     0.09900
S784        S  0.44589569  0.09247797  0.68191432    -0.24800
H785        H  0.45584743  0.14402770  0.70750520     0.20200
S786        S  0.47014561  0.21260885  0.63106883    -0.30500
H787        H  0.46511801  0.16025413  0.60686937     0.10500
C788        C  0.44128552  0.10493704  0.59544367     0.03700
C789        C  0.44612672  0.08474353  0.57506412    -0.12800
C790        C  0.46822823  0.06603274  0.57737844    -0.08400
C791        C  0.48563446  0.06752596  0.60081188     0.07200
C792        C  0.48069128  0.08753101  0.62112248    -0.13500
S793        S  0.41225528  0.12820773  0.59212847    -0.30400
H794        H  0.43277642  0.08357206  0.55717379     0.11400
S795        S  0.51590992  0.04610783  0.60495035    -0.27500
H796        H  0.49472298  0.08908440  0.63848379     0.08600
H797        H  0.44863610  0.22519771  0.64614940     0.27100
H798        H  0.40265034  0.11807449  0.56665434     0.21900
H799        H  0.52417269  0.04764741  0.57707639     0.27200
H800        H  0.43178154  0.08236549  0.65864157     0.16000
C801        C  0.40867967  0.23178403  0.87193747    -0.11300
C802        C  0.38720820  0.21290832  0.86753703     0.15300
C803        C  0.38726226  0.19659484  0.84334354     0.02200
C804        C  0.40807848  0.20048037  0.82348711    -0.15600
C805        C  0.42880596  0.22043894  0.82723874    -0.10400
C806        C  0.42953791  0.23556687  0.85227025     0.08900
C807        C  0.36355320  0.21350671  0.88694097     0.09900
S808        S  0.36055151  0.17172154  0.83592169    -0.24800
H809        H  0.40734327  0.18874794  0.80442364     0.20200
S810        S  0.45631504  0.26022909  0.86031328    -0.30500
H811        H  0.40874633  0.24424338  0.89056090     0.10500
C812        C  0.36399019  0.19918948  0.91231406     0.03700
C813        C  0.34233269  0.20312416  0.93134950    -0.12800
C814        C  0.32058744  0.22152676  0.92560182    -0.08400
C815        C  0.31974212  0.23489714  0.89958820     0.07200
C816        C  0.34124386  0.23084831  0.88068815    -0.13500
S817        S  0.39251121  0.17660208  0.92063534    -0.30400
H818        H  0.34299096  0.19290347  0.95126332     0.11400
S819        S  0.29187787  0.25745090  0.88924853    -0.27500
H820        H  0.34089538  0.24176855  0.86110930     0.08600
H821        H  0.47750495  0.24603134  0.84628279     0.27100
H822        H  0.38273202  0.16835799  0.94677916     0.21900
H823        H  0.27115246  0.24329280  0.90397930     0.27200
H824        H  0.35338031  0.16611949  0.86352285     0.16000
C825        C  0.37245572  0.41010570  0.72220816    -0.11300
C826        C  0.36673415  0.38825461  0.70409487     0.15300
C827        C  0.34172725  0.38855404  0.68901063     0.02200
C828        C  0.32233596  0.40969028  0.69367783    -0.15600
C829        C  0.32743756  0.43063580  0.71308360    -0.10400
C830        C  0.35335065  0.43136693  0.72659163     0.08900
C831        C  0.38575093  0.36411129  0.70419000     0.09900
S832        S  0.33297188  0.36199990  0.66441935    -0.24800
H833        H  0.30263697  0.40903412  0.68307132     0.20200
S834        S  0.36312751  0.45863174  0.75008609    -0.30500
H835        H  0.39167236  0.41014217  0.73370035     0.10500
C836        C  0.41300001  0.36584201  0.69387395     0.03700
C837        C  0.43130405  0.34355969  0.69781724    -0.12800
C838        C  0.42302644  0.31981153  0.71234683    -0.08400
C839        C  0.39534939  0.31770597  0.72157482     0.07200
C840        C  0.37710922  0.33980732  0.71744670    -0.13500
S841        S  0.42461471  0.39670709  0.67634897    -0.30400
H842        H  0.45253820  0.34521004  0.69088961     0.11400
S843        S  0.38220130  0.28759053  0.73925851    -0.27500
H844        H  0.35619676  0.33840182  0.72541649     0.08600
H845        H  0.34788413  0.47953544  0.73677493     0.27100
H846        H  0.45202144  0.38801119  0.67191706     0.21900
H847        H  0.40020142  0.26857156  0.72657457     0.27200
H848        H  0.36031375  0.35476219  0.65765317     0.16000
C849        C  0.12838779  0.47272962  0.65970627    -0.11300
C850        C  0.13632232  0.45962888  0.63508119     0.15300
C851        C  0.16372480  0.44990642  0.63237612     0.02200
C852        C  0.18278632  0.45461879  0.65364165    -0.15600
C853        C  0.17523509  0.46870539  0.67796375    -0.10400
C854        C  0.14741954  0.47762863  0.68094465     0.08900
C855        C  0.11689556  0.46035129  0.61130344     0.09900
S856        S  0.17575399  0.43182981  0.60204296    -0.24800
H857        H  0.20383794  0.44740512  0.65100496     0.20200
S858        S  0.13525075  0.49764742  0.70995708    -0.30500
H859        H  0.10754637  0.48074305  0.66170076     0.10500
C860        C  0.09136153  0.44623281  0.61157283     0.03700
C861        C  0.07252383  0.45030109  0.58978088    -0.12800
C862        C  0.07875467  0.46830538  0.56783328    -0.08400
C863        C  0.10505942  0.48097650  0.56684415     0.07200
C864        C  0.12358415  0.47717590  0.58864537    -0.13500
S865        S  0.08267272  0.42336906  0.63979506    -0.30400
H866        H  0.05241667  0.44050832  0.59047787     0.11400
S867        S  0.11620662  0.50231806  0.53831070    -0.27500
H868        H  0.14327571  0.48784330  0.58818168     0.08600
H869        H  0.15770484  0.51613202  0.70942130     0.27100
H870        H  0.05726922  0.41423682  0.62906483     0.21900
H871        H  0.10082526  0.48827200  0.51806115     0.27200
H872        H  0.14990705  0.42089411  0.59456711     0.16000
C873        C  0.90942128  0.52656262  0.37991602    -0.11300
C874        C  0.88637288  0.54245901  0.38731769     0.15300
C875        C  0.88475723  0.55380526  0.41412328     0.02200
C876        C  0.90580864  0.54829743  0.43320601    -0.15600
C877        C  0.92865237  0.53175267  0.42609233    -0.10400
C878        C  0.93027502  0.52070030  0.39898566     0.08900
C879        C  0.86263443  0.54264789  0.36814692     0.09900
S880        S  0.85610995  0.57491763  0.42530977    -0.24800
H881        H  0.90428662  0.55695303  0.45380853     0.20200
S882        S  0.95683424  0.49687362  0.38799220    -0.30500
H883        H  0.91030849  0.51721174  0.35956881     0.10500
C884        C  0.86278403  0.55814807  0.34346915     0.03700
C885        C  0.84164159  0.55411787  0.32399155    -0.12800
C886        C  0.82064846  0.53461092  0.32873494    -0.08400
C887        C  0.81971308  0.52050053  0.35436994     0.07200
C888        C  0.84078679  0.52449554  0.37359168    -0.13500
S889        S  0.89027167  0.58242916  0.33660989    -0.30400
H890        H  0.84223893  0.56508178  0.30447624     0.11400
S891        S  0.79236627  0.49689853  0.36377849    -0.27500
H892        H  0.84058500  0.51275599  0.39269489     0.08600
H893        H  0.95649877  0.48132587  0.41260229     0.27100
H894        H  0.88067878  0.59120237  0.31060613     0.21900
H895        H  0.77144516  0.51110517  0.34941734     0.27200
H896        H  0.84887418  0.58470092  0.39891988     0.16000
C897        C  0.09435374  0.62392836  0.47714150    -0.11300
C898        C  0.11056629  0.62132746  0.45327178     0.15300
C899        C  0.10579039  0.59907080  0.43507520     0.02200
C900        C  0.08579661  0.57918247  0.44184952    -0.15600
C901        C  0.07026512  0.58115050  0.46639082    -0.10400
C902        C  0.07405181  0.60447896  0.48368354     0.08900
C903        C  0.13401622  0.64064702  0.44997529     0.09900
S904        S  0.12499496  0.59458047  0.40341471    -0.24800
H905        H  0.08293141  0.56163588  0.42824168     0.20200
S906        S  0.05353341  0.61104982  0.51418870    -0.30500
H907        H  0.09785289  0.64114127  0.49104601     0.10500
C908        C  0.12988116  0.66864085  0.44295747     0.03700
C909        C  0.15170969  0.68753001  0.44612239    -0.12800
C910        C  0.17744168  0.67875826  0.45619634    -0.08400
C911        C  0.18213746  0.65030959  0.46074709     0.07200
C912        C  0.16035034  0.63160225  0.45784647    -0.13500
S913        S  0.09647079  0.68035838  0.43122370    -0.30400
H914        H  0.14824727  0.70935405  0.44247252     0.11400
S915        S  0.21521591  0.63678783  0.47124831    -0.27500
H916        H  0.16361977  0.61001697  0.46294971     0.08600
H917        H  0.02867438  0.60130425  0.50272213     0.27100
H918        H  0.10428118  0.70785572  0.42584063     0.21900
H919        H  0.23118289  0.65817690  0.45969267     0.27200
H920        H  0.13116221  0.62269488  0.39935779     0.16000
C921        C  0.97606992  0.62654135  0.66340415    -0.11300
C922        C  0.96009194  0.63291054  0.64013196     0.15300
C923        C  0.94569236  0.65834500  0.63921399     0.02200
C924        C  0.94908708  0.67754626  0.66072849    -0.15600
C925        C  0.96658606  0.67182168  0.68313672    -0.10400
C926        C  0.97932084  0.64554444  0.68490685     0.08900
C927        C  0.96238502  0.61427559  0.61589795     0.09900
S928        S  0.92446166  0.66829341  0.61028192    -0.24800
H929        H  0.93925517  0.69762986  0.65919839     0.20200
S930        S  0.00075714  0.63535376  0.71367745    -0.30500
H931        H  0.98704167  0.60700510  0.66428063     0.10500
C932        C  0.98379844  0.61797982  0.59648440     0.03700
C933        C  0.98799251  0.59812897  0.57580565    -0.12800
C934        C  0.97123212  0.57446734  0.57394920    -0.08400
C935        C  0.94931742  0.57112526  0.59312475     0.07200
C936        C  0.94512947  0.59106252  0.61383214    -0.13500
S937        S  0.00649908  0.64756200  0.59869420    -0.30400
H938        H  0.00470564  0.60086809  0.56114036     0.11400
S939        S  0.92723736  0.54114522  0.59351858    -0.27500
H940        H  0.92892621  0.58800295  0.62902523     0.08600
H941        H  0.98692749  0.65152821  0.73352858     0.27100
H942        H  0.02251141  0.64150707  0.57515194     0.21900
H943        H  0.94852031  0.52214147  0.58779795     0.27200
H944        H  0.91759091  0.64136325  0.60190657     0.16000
C945        C  0.38370119  0.05354853  0.40904436    -0.11300
C946        C  0.38651769  0.04024439  0.38338113     0.15300
C947        C  0.41089770  0.02519260  0.37770263     0.02200
C948        C  0.43100974  0.02239593  0.39822254    -0.15600
C949        C  0.42738874  0.03400166  0.42457862    -0.10400
C950        C  0.40374839  0.05042291  0.42976797     0.08900
C951        C  0.36255312  0.03923816  0.36434551     0.09900
S952        S  0.41718781  0.00808805  0.34513260    -0.24800
H953        H  0.44922028  0.01002024  0.39394212     0.20200
S954        S  0.39688428  0.06605861  0.46288924    -0.30500
H955        H  0.36500036  0.06507909  0.41350360     0.10500
C956        C  0.34085537  0.02041766  0.36921210     0.03700
C957        C  0.32045574  0.01667949  0.34904970    -0.12800
C958        C  0.32115083  0.03129425  0.32393473    -0.08400
C959        C  0.34256342  0.05074964  0.31942414     0.07200
C960        C  0.36285740  0.05467946  0.33976783    -0.13500
S961        S  0.34005169  0.99986935  0.40045290    -0.30400
H962        H  0.30409791  0.00182276  0.35261955     0.11400
S963        S  0.34645556  0.06952115  0.28745251    -0.27500
H964        H  0.37976137  0.06884701  0.33585287     0.08600
H965        H  0.40656976  0.04364840  0.47868701     0.27100
H966        H  0.31556511  0.98537852  0.39458696     0.21900
H967        H  0.33967081  0.04700316  0.27037636     0.27200
H968        H  0.38976026  0.99997879  0.34023857     0.16000
C969        C  0.30068849  0.13363458  0.08921927    -0.11300
C970        C  0.28560849  0.13486452  0.11401625     0.15300
C971        C  0.26942846  0.15850998  0.11968914     0.02200
C972        C  0.26833449  0.18005736  0.10045804    -0.15600
C973        C  0.28235535  0.17841681  0.07505177    -0.10400
C974        C  0.29932294  0.15511637  0.06975498     0.08900
C975        C  0.28662824  0.11125377  0.13358640     0.09900
S976        S  0.24859836  0.16195338  0.15049699    -0.24800
H977        H  0.25506856  0.19761130  0.10477934     0.20200
S978        S  0.32014603  0.15176867  0.03898062    -0.30500
H979        H  0.31351011  0.11574071  0.08497549     0.10500
C980        C  0.27349051  0.08599513  0.12749964     0.03700
C981        C  0.27127566  0.06570260  0.14812247    -0.12800
C982        C  0.28190437  0.07003330  0.17483592    -0.08400
C983        C  0.29698140  0.09457178  0.18009328     0.07200
C984        C  0.29888719  0.11494715  0.15956995    -0.13500
S985        S  0.25752936  0.08039748  0.09422806    -0.30400
H986        H  0.25980768  0.04699531  0.14381368     0.11400
S987        S  0.31441810  0.10117055  0.21231605    -0.27500
H988        H  0.30951707  0.13413625  0.16405872     0.08600
H989        H  0.32581856  0.18019735  0.03651942     0.27100
H990        H  0.25026411  0.05256455  0.09854899     0.21900
H991        H  0.32209817  0.07344969  0.21676713     0.27200
H992        H  0.24160417  0.13383179  0.15276073     0.16000
C993        C  0.22340072  0.87560973  0.41146043    -0.11300
C994        C  0.20561034  0.86960674  0.38941110     0.15300
C995        C  0.19247775  0.84357661  0.38848466     0.02200
C996        C  0.19856728  0.82367894  0.40864871    -0.15600
C997        C  0.21723336  0.82924167  0.43017438    -0.10400
C998        C  0.22953653  0.85576397  0.43163978     0.08900
C999        C  0.20494363  0.88904142  0.36566422     0.09900
S1000       S  0.16821053  0.83440554  0.36178076    -0.24800
H1001       H  0.18879280  0.80356605  0.40739063     0.20200
S1002       S  0.25519122  0.86484781  0.45704709    -0.30500
H1003       H  0.23395291  0.89536628  0.41198632     0.10500
C1004       C  0.19376731  0.91591484  0.36781983     0.03700
C1005       C  0.19725908  0.93468603  0.34583654    -0.12800
C1006       C  0.21189353  0.92702724  0.32193436    -0.08400
C1007       C  0.22149005  0.89958121  0.31921864     0.07200
C1008       C  0.21811117  0.88102044  0.34110172    -0.13500
S1009       S  0.17560226  0.92636523  0.39873419    -0.30400
H1010       H  0.18987389  0.95573501  0.34781551     0.11400
S1011       S  0.23876445  0.88720166  0.28852042    -0.27500
H1012       H  0.22654642  0.86032783  0.33928778     0.08600
H1013       H  0.26954450  0.83958549  0.45529789     0.27100
H1014       H  0.16902846  0.95327653  0.38984263     0.21900
H1015       H  0.22504359  0.90495771  0.27001758     0.27200
H1016       H  0.15930963  0.86154613  0.35627836     0.16000
C1017       C  0.34070740  0.88755003  0.19527605    -0.11300
C1018       C  0.36279109  0.88619219  0.21401127     0.15300
C1019       C  0.36491087  0.90630495  0.23498632     0.02200
C1020       C  0.34419821  0.92614847  0.23789000    -0.15600
C1021       C  0.32125084  0.92690182  0.22013931    -0.10400
C1022       C  0.31981218  0.90757490  0.19819534     0.08900
C1023       C  0.38147768  0.86193396  0.21387011     0.09900
S1024       S  0.39277892  0.90684819  0.25974970    -0.24800
H1025       H  0.34589966  0.94102863  0.25454961     0.20200
S1026       S  0.29103017  0.90592321  0.17468851    -0.30500
H1027       H  0.33895235  0.87201115  0.17924898     0.10500
C1028       C  0.37834599  0.84096948  0.23385241     0.03700
C1029       C  0.39915575  0.82111094  0.23705114    -0.12800
C1030       C  0.42308783  0.82153364  0.22056092    -0.08400
C1031       C  0.42544119  0.84171630  0.19943367     0.07200
C1032       C  0.40445889  0.86151942  0.19614805    -0.13500
S1033       S  0.34816681  0.84007809  0.25593875    -0.30400
H1034       H  0.39703265  0.80541097  0.25288602     0.11400
S1035       S  0.45550667  0.84480031  0.17757920    -0.27500
H1036       H  0.40689587  0.87774196  0.18087321     0.08600
H1037       H  0.27077584  0.90977053  0.19524863     0.27100
H1038       H  0.35505826  0.81574530  0.27031842     0.21900
H1039       H  0.47468612  0.83971098  0.19880560     0.27200
H1040       H  0.41303028  0.89572704  0.24211155     0.16000
C1041       C  0.91366172  0.86518844  0.69949024    -0.11300
C1042       C  0.88811425  0.86366042  0.71323597     0.15300
C1043       C  0.88205614  0.84002677  0.72933635     0.02200
C1044       C  0.90179350  0.81901161  0.73197588    -0.15600
C1045       C  0.92797383  0.82113225  0.71949084    -0.10400
C1046       C  0.93350669  0.84416632  0.70225040     0.08900
C1047       C  0.86863507  0.88740164  0.71172864     0.09900
S1048       S  0.85001071  0.83591392  0.74807657    -0.24800
H1049       H  0.89713712  0.80149826  0.74517729     0.20200
S1050       S  0.96509517  0.84766035  0.68272589    -0.30500
H1051       H  0.91825010  0.88303412  0.68672268     0.10500
C1052       C  0.87374734  0.91184730  0.72672245     0.03700
C1053       C  0.85295706  0.93198416  0.72882501    -0.12800
C1054       C  0.82710567  0.92839086  0.71613952    -0.08400
C1055       C  0.82253885  0.90449920  0.69995106     0.07200
C1056       C  0.84340933  0.88442099  0.69771961    -0.13500
S1057       S  0.90599644  0.91655067  0.74490816    -0.30400
H1058       H  0.85646594  0.95026058  0.74124839     0.11400
S1059       S  0.78987610  0.89728844  0.68364910    -0.27500
H1060       H  0.83940165  0.86560821  0.68625918     0.08600
H1061       H  0.96834464  0.81917401  0.67776288     0.27100
H1062       H  0.90062288  0.94345783  0.75455566     0.21900
H1063       H  0.77353736  0.90671860  0.70580997     0.27200
H1064       H  0.84655284  0.86396589  0.75483476     0.16000
C1065       C  0.63034821  0.08615239  0.79328952    -0.11300
C1066       C  0.63243239  0.11112314  0.77861938     0.15300
C1067       C  0.65666313  0.11662487  0.76327060     0.02200
C1068       C  0.67801315  0.09711362  0.76269707    -0.15600
C1069       C  0.67563994  0.07161299  0.77648014    -0.10400
C1070       C  0.65165405  0.06645821  0.79252232     0.08900
C1071       C  0.60923995  0.13121797  0.77969042     0.09900
S1072       S  0.66117874  0.14764781  0.74300463    -0.24800
H1073       H  0.69608985  0.10137315  0.75012976     0.20200
S1074       S  0.64724832  0.03566045  0.81307588    -0.30500
H1075       H  0.61199253  0.08203626  0.80549249     0.10500
C1076       C  0.58415636  0.12613997  0.76584767     0.03700
C1077       C  0.56378146  0.14681794  0.76512301    -0.12800
C1078       C  0.56791228  0.17266375  0.77783223    -0.08400
C1079       C  0.59255732  0.17702092  0.79297390     0.07200
C1080       C  0.61295711  0.15643039  0.79348878    -0.13500
S1081       S  0.57885245  0.09409815  0.74741192    -0.30400
H1082       H  0.54507748  0.14329172  0.75340964     0.11400
S1083       S  0.59914574  0.20807783  0.81243056    -0.27500
H1084       H  0.63206416  0.16017464  0.80451684     0.08600
H1085       H  0.67532298  0.03333936  0.82027273     0.27100
H1086       H  0.55165254  0.09957033  0.73874950     0.21900
H1087       H  0.57148496  0.21186068  0.82066715     0.27200
H1088       H  0.63326463  0.15063253  0.73554269     0.16000
C1089       C  0.62162370  0.97931043  0.58681175    -0.11300
C1090       C  0.61686323  0.96095646  0.60873302     0.15300
C1091       C  0.59179144  0.94605428  0.60967565     0.02200
C1092       C  0.57176535  0.95044249  0.58919850    -0.15600
C1093       C  0.57627351  0.96924505  0.56747265    -0.10400
C1094       C  0.60162047  0.98391855  0.56649381     0.08900
C1095       C  0.63681170  0.96095332  0.63198035     0.09900
S1096       S  0.58405535  0.92148754  0.63665193    -0.24800
H1097       H  0.55246549  0.93913560  0.59028758     0.20200
S1098       S  0.60885137  0.01073306  0.54154687    -0.30500
H1099       H  0.64052705  0.99132815  0.58639654     0.10500
C1100       C  0.66391648  0.95069171  0.62900212     0.03700
C1101       C  0.68308999  0.95449859  0.65045830    -0.12800
C1102       C  0.67587763  0.96880662  0.67476276    -0.08400
C1103       C  0.64844960  0.97892618  0.67757051     0.07200
C1104       C  0.62925819  0.97439200  0.65648080    -0.13500
S1105       S  0.67404664  0.93284950  0.59780528    -0.30400
H1106       H  0.70392509  0.94665542  0.64811461     0.11400
S1107       S  0.63704219  0.00006823  0.70611232    -0.27500
H1108       H  0.60859308  0.98285038  0.65849778     0.08600
H1109       H  0.58246003  0.02290179  0.54328939     0.27100
H1110       H  0.70181551  0.92843775  0.60516843     0.21900
H1111       H  0.66028382  0.01755204  0.70529315     0.27200
H1112       H  0.61164536  0.91435839  0.64235458     0.16000
C1113       C  0.72879403  0.87806285  0.83998731    -0.11300
C1114       C  0.70844696  0.88342418  0.85991779     0.15300
C1115       C  0.69198465  0.90739707  0.85756014     0.02200
C1116       C  0.69723892  0.92624862  0.83616123    -0.15600
C1117       C  0.71871931  0.92171221  0.81709455    -0.10400
C1118       C  0.73408223  0.89683227  0.81854154     0.08900
C1119       C  0.70768108  0.86534891  0.88456767     0.09900
S1120       S  0.66497218  0.91570099  0.88192149    -0.24800
H1121       H  0.68523359  0.94514835  0.83510541     0.20200
S1122       S  0.76033976  0.88861295  0.79312518    -0.30500
H1123       H  0.74120051  0.85951074  0.84190452     0.10500
C1124       C  0.69438703  0.83945040  0.88431908     0.03700
C1125       C  0.69801646  0.82126095  0.90671136    -0.12800
C1126       C  0.71502453  0.82847139  0.92907987    -0.08400
C1127       C  0.72676288  0.85523996  0.92997987     0.07200
C1128       C  0.72314717  0.87323105  0.90767093    -0.13500
S1129       S  0.67377603  0.82926453  0.85500247    -0.30400
H1130       H  0.68894874  0.80081014  0.90604888     0.11400
S1131       S  0.74687000  0.86756838  0.95882613    -0.27500
H1132       H  0.73314159  0.89328226  0.90794683     0.08600
H1133       H  0.76794653  0.86272394  0.80400065     0.27100
H1134       H  0.66363751  0.80457047  0.86658067     0.21900
H1135       H  0.73260460  0.85219396  0.97901686     0.27200
H1136       H  0.65925506  0.88837103  0.88997502     0.16000
C1137       C  0.58816505  0.12159221  0.48833442    -0.11300
C1138       C  0.60981150  0.11825937  0.46936203     0.15300
C1139       C  0.61081282  0.09431405  0.45274395     0.02200
C1140       C  0.59037815  0.07402758  0.45576613    -0.15600
C1141       C  0.56878061  0.07718077  0.47497612    -0.10400
C1142       C  0.56797721  0.10121653  0.49167781     0.08900
C1143       C  0.63264840  0.13850520  0.46998203     0.09900
S1144       S  0.63791195  0.08824603  0.42780752    -0.24800
H1145       H  0.59137863  0.05560705  0.44306110     0.20200
S1146       S  0.54342229  0.10606657  0.51939606    -0.30500
H1147       H  0.58783031  0.13960154  0.50166355     0.10500
C1148       C  0.62964725  0.16536361  0.45917151     0.03700
C1149       C  0.65133396  0.18439574  0.46202932    -0.12800
C1150       C  0.67572897  0.17733443  0.47617782    -0.08400
C1151       C  0.67817737  0.15042193  0.48764688     0.07200
C1152       C  0.65697140  0.13123632  0.48379594    -0.13500
S1153       S  0.59818630  0.17533179  0.44178339    -0.30400
H1154       H  0.64916903  0.20495045  0.45342120     0.11400
S1155       S  0.70642285  0.13979986  0.50952978    -0.27500
H1156       H  0.65884050  0.11080092  0.49283605     0.08600
H1157       H  0.54483420  0.07857696  0.52889128     0.27100
H1158       H  0.60519122  0.20327147  0.43774342     0.21900
H1159       H  0.70633013  0.16425992  0.52529653     0.27200
H1160       H  0.64359800  0.11622307  0.42232917     0.16000
C1161       C  0.84639444  0.36283376  0.55118062    -0.11300
C1162       C  0.86803855  0.36449578  0.53186491     0.15300
C1163       C  0.86942561  0.34493299  0.51030795     0.02200
C1164       C  0.84914771  0.32448347  0.50831356    -0.15600
C1165       C  0.82675648  0.32328400  0.52690153    -0.10400
C1166       C  0.82557721  0.34275499  0.54874147     0.08900
C1167       C  0.88822997  0.38747786  0.53365253     0.09900
S1168       S  0.89615186  0.34533540  0.48421562    -0.24800
H1169       H  0.85053733  0.30972790  0.49151428     0.20200
S1170       S  0.79731143  0.34438320  0.57297776    -0.30500
H1171       H  0.84516752  0.37795575  0.56765683     0.10500
C1172       C  0.88134592  0.41423179  0.52442298     0.03700
C1173       C  0.90194885  0.43457903  0.52288444    -0.12800
C1174       C  0.92949337  0.42885876  0.53036367    -0.08400
C1175       C  0.93579843  0.40240615  0.54138180     0.07200
C1176       C  0.91525656  0.38198885  0.54249260    -0.13500
S1177       S  0.84677441  0.42188481  0.51256341    -0.30400
H1178       H  0.89678380  0.45465202  0.51443355     0.11400
S1179       S  0.96938133  0.39335173  0.55467953    -0.27500
H1180       H  0.92044717  0.36150246  0.54996301     0.08600
H1181       H  0.77670570  0.34130619  0.55272840     0.27100
H1182       H  0.85092051  0.45027039  0.50774869     0.21900
H1183       H  0.97440180  0.41950240  0.56637593     0.27200
H1184       H  0.89863110  0.37424262  0.48258273     0.16000
C1185       C  0.69191300  0.34705610  0.39095799    -0.11300
C1186       C  0.71030843  0.36948975  0.39004973     0.15300
C1187       C  0.73132857  0.37142332  0.41010315     0.02200
C1188       C  0.73466081  0.35022453  0.42937124    -0.15600
C1189       C  0.71731521  0.32694616  0.42956453    -0.10400
C1190       C  0.69526010  0.32568199  0.41040217     0.08900
C1191       C  0.71058272  0.38799252  0.36562682     0.09900
S1192       S  0.75596134  0.39940749  0.41087204    -0.24800
H1193       H  0.75144802  0.35170345  0.44410859     0.20200
S1194       S  0.67231936  0.29646391  0.40804971    -0.30500
H1195       H  0.67596181  0.34533494  0.37536207     0.10500
C1196       C  0.72897888  0.38274301  0.34364580     0.03700
C1197       C  0.73287306  0.40284004  0.32314936    -0.12800
C1198       C  0.71878005  0.42823702  0.32405904    -0.08400
C1199       C  0.69946673  0.43299330  0.34557331     0.07200
C1200       C  0.69522905  0.41262063  0.36586117    -0.13500
S1201       S  0.74835066  0.35077647  0.34234496    -0.30400
H1202       H  0.74751717  0.39905021  0.30661715     0.11400
S1203       S  0.68164654  0.46544844  0.34980517    -0.27500
H1204       H  0.68133591  0.41677512  0.38296311     0.08600
H1205       H  0.69319200  0.27651517  0.41162460     0.27100
H1206       H  0.76299444  0.35653267  0.31786077     0.21900
H1207       H  0.70459382  0.48193958  0.34289108     0.27200
H1208       H  0.73765341  0.41995098  0.40162023     0.16000
C1209       C  0.63225036  0.26829087  0.59341983    -0.11300
C1210       C  0.63537403  0.28860096  0.61381003     0.15300
C1211       C  0.65960653  0.30495768  0.61389023     0.02200
C1212       C  0.68030363  0.30020163  0.59400813    -0.15600
C1213       C  0.67707641  0.27980117  0.57361551    -0.10400
C1214       C  0.65272695  0.26356581  0.57359591     0.08900
C1215       C  0.61446658  0.28940006  0.63636733     0.09900
S1216       S  0.66514275  0.33229808  0.63856556    -0.24800
H1217       H  0.69883327  0.31276946  0.59419125     0.20200
S1218       S  0.64720380  0.23512455  0.55008356    -0.30500
H1219       H  0.61411320  0.25514113  0.59367725     0.10500
C1220       C  0.58641690  0.29524926  0.63109479     0.03700
C1221       C  0.56658580  0.29067946  0.65188574    -0.12800
C1222       C  0.57403809  0.28003347  0.67795852    -0.08400
C1223       C  0.60252709  0.27510759  0.68330130     0.07200
C1224       C  0.62222680  0.28022007  0.66268250    -0.13500
S1225       S  0.57586474  0.30828020  0.59772536    -0.30400
H1226       H  0.54505350  0.29489026  0.64755212     0.11400
S1227       S  0.61532507  0.26001132  0.71486709    -0.27500
H1228       H  0.64371841  0.27527777  0.66663394     0.08600
H1229       H  0.67473669  0.22572305  0.55053869     0.27100
H1230       H  0.54754179  0.31086257  0.60383294     0.21900
H1231       H  0.59716396  0.23730841  0.71375185     0.27200
H1232       H  0.63702497  0.33803489  0.64327000     0.16000
C1233       C  0.80124730  0.11418746  0.65790054    -0.11300
C1234       C  0.78456004  0.11402795  0.63419435     0.15300
C1235       C  0.76635884  0.09165716  0.62977942     0.02200
C1236       C  0.76510417  0.07018206  0.64911296    -0.15600
C1237       C  0.78091121  0.07083608  0.67342414    -0.10400
C1238       C  0.79961162  0.09290706  0.67753804     0.08900
C1239       C  0.78616416  0.13750381  0.61452722     0.09900
S1240       S  0.74322318  0.08989772  0.60060783    -0.24800
H1241       H  0.75045014  0.05356046  0.64586977     0.20200
S1242       S  0.82219228  0.09490303  0.70707670    -0.30500
H1243       H  0.81550817  0.13113004  0.66118870     0.10500
C1244       C  0.77542954  0.16370484  0.62139944     0.03700
C1245       C  0.77450440  0.18450866  0.60119452    -0.12800
C1246       C  0.78395126  0.17972211  0.57407529    -0.08400
C1247       C  0.79638452  0.15388317  0.56787718     0.07200
C1248       C  0.79706315  0.13307338  0.58802571    -0.13500
S1249       S  0.76081256  0.17000915  0.65522704    -0.30400
H1250       H  0.76486031  0.20408843  0.60617477     0.11400
S1251       S  0.81187607  0.14605056  0.53486534    -0.27500
H1252       H  0.80578505  0.11306821  0.58290177     0.08600
H1253       H  0.82534590  0.06615343  0.71023590     0.27100
H1254       H  0.75530043  0.19831792  0.65141421     0.21900
H1255       H  0.82216420  0.17291743  0.53051070     0.27200
H1256       H  0.73848756  0.11850920  0.59852534     0.16000
C1257       C  0.11559415  0.16150701  0.30262329    -0.11300
C1258       C  0.11256034  0.13563088  0.28990727     0.15300
C1259       C  0.08722692  0.12889061  0.27718379     0.02200
C1260       C  0.06607089  0.14851364  0.27634762    -0.15600
C1261       C  0.06972495  0.17519782  0.28726683    -0.10400
C1262       C  0.09445019  0.18126626  0.30161648     0.08900
C1263       C  0.13632473  0.11637585  0.28932764     0.09900
S1264       S  0.08109010  0.09626781  0.26017883    -0.24800
H1265       H  0.04724297  0.14338510  0.26539556     0.20200
S1266       S  0.10022589  0.21351644  0.31932854    -0.30500
H1267       H  0.13476113  0.16645756  0.31306073     0.10500
C1268       C  0.15996826  0.12217884  0.27325796     0.03700
C1269       C  0.18081384  0.10218692  0.27087061    -0.12800
C1270       C  0.17831758  0.07626503  0.28376948    -0.08400
C1271       C  0.15515873  0.07108642  0.30095793     0.07200
C1272       C  0.13445776  0.09114626  0.30348371    -0.13500
S1273       S  0.16261180  0.15408333  0.25391622    -0.30400
H1274       H  0.19838659  0.10616216  0.25755780     0.11400
S1275       S  0.15071205  0.03944212  0.32019783    -0.27500
H1276       H  0.11642395  0.08685113  0.31610435     0.08600
H1277       H  0.07252062  0.21686889  0.32761864     0.27100
H1278       H  0.18885677  0.14909461  0.24237736     0.21900
H1279       H  0.17905433  0.03549867  0.32535753     0.27200
H1280       H  0.10803297  0.09313032  0.24968353     0.16000
C1281       C  0.87255291  0.40825216  0.23456339    -0.11300
C1282       C  0.86814445  0.38849011  0.21392600     0.15300
C1283       C  0.84537222  0.39144140  0.19596085     0.02200
C1284       C  0.82663082  0.41322035  0.20008147    -0.15600
C1285       C  0.83020600  0.43219838  0.22176226    -0.10400
C1286       C  0.85416907  0.43019186  0.23845707     0.08900
C1287       C  0.88622466  0.36382014  0.21383757     0.09900
S1288       S  0.83838321  0.36740015  0.16838920    -0.24800
H1289       H  0.80849166  0.41460216  0.18703843     0.20200
S1290       S  0.86256850  0.45480855  0.26517204    -0.30500
H1291       H  0.89022837  0.40620772  0.24816627     0.10500
C1292       C  0.91276215  0.36433934  0.20181593     0.03700
C1293       C  0.93065157  0.34177924  0.20570985    -0.12800
C1294       C  0.92265581  0.31904442  0.22193944    -0.08400
C1295       C  0.89553073  0.31809321  0.23285179     0.07200
C1296       C  0.87769184  0.34048859  0.22875402    -0.13500
S1297       S  0.92411149  0.39420182  0.18248289    -0.30400
H1298       H  0.95143931  0.34249761  0.19740081     0.11400
S1299       S  0.88256373  0.28909362  0.25244787    -0.27500
H1300       H  0.85724409  0.34009702  0.23794833     0.08600
H1301       H  0.85155350  0.47781437  0.25116646     0.27100
H1302       H  0.95045607  0.38395848  0.17557039     0.21900
H1303       H  0.89867327  0.26899767  0.23890198     0.27200
H1304       H  0.86582650  0.35872586  0.16439699     0.16000
C1305       C  0.16025274  0.29554792  0.12146789    -0.11300
C1306       C  0.13394010  0.28422015  0.11688149     0.15300
C1307       C  0.12783288  0.27312238  0.09060528     0.02200
C1308       C  0.14831267  0.27251796  0.07009903    -0.15600
C1309       C  0.17527822  0.28221522  0.07512731    -0.10400
C1310       C  0.18082087  0.29489850  0.10095303     0.08900
C1311       C  0.11365343  0.28328125  0.14006098     0.09900
S1312       S  0.09476307  0.25808673  0.08227678    -0.24800
H1313       H  0.14344938  0.26286738  0.05050211     0.20200
S1314       S  0.21338249  0.31105652  0.10901064    -0.30500
H1315       H  0.16488039  0.30472634  0.14135547     0.10500
C1316       C  0.11796800  0.26591584  0.16310453     0.03700
C1317       C  0.09758128  0.26404473  0.18371386    -0.12800
C1318       C  0.07261749  0.27881824  0.18174263    -0.08400
C1319       C  0.06874133  0.29691453  0.15905947     0.07200
C1320       C  0.08918515  0.29886008  0.13849489    -0.13500
S1321       S  0.14862954  0.24464473  0.16541899    -0.30400
H1322       H  0.10057994  0.25000062  0.20089148     0.11400
S1323       S  0.03851458  0.31841625  0.15540449    -0.27500
H1324       H  0.08591541  0.31244802  0.12097867     0.08600
H1325       H  0.21759364  0.32168003  0.08223352     0.27100
H1326       H  0.14213511  0.23179238  0.19070498     0.21900
H1327       H  0.03479539  0.32281492  0.18391947     0.27200
H1328       H  0.08966147  0.24681896  0.10859398     0.16000
C1329       C  0.05145794  0.38636861  0.40875430    -0.11300
C1330       C  0.03924416  0.39000334  0.38274786     0.15300
C1331       C  0.02678346  0.41562862  0.37627610     0.02200
C1332       C  0.02571742  0.43644731  0.39635973    -0.15600
C1333       C  0.03627970  0.43220566  0.42311045    -0.10400
C1334       C  0.05053229  0.40726299  0.42877952     0.08900
C1335       C  0.03705573  0.36581309  0.36415739     0.09900
S1336       S  0.01079940  0.42282348  0.34332196    -0.24800
H1337       H  0.01492796  0.45551421  0.39151783     0.20200
S1338       S  0.06816504  0.40089861  0.46095114    -0.30500
H1339       H  0.06138698  0.36685034  0.41365367     0.10500
C1340       C  0.05446325  0.36201849  0.34106966     0.03700
C1341       C  0.04958631  0.33975281  0.32296737    -0.12800
C1342       C  0.02764935  0.32123808  0.32768022    -0.08400
C1343       C  0.01148252  0.32431590  0.35193620     0.07200
C1344       C  0.01613362  0.34662473  0.36958312    -0.13500
S1345       S  0.08244196  0.38579553  0.33451889    -0.30400
H1346       H  0.06221351  0.33734458  0.30462753     0.11400
S1347       S  0.98499641  0.30016700  0.36205971    -0.27500
H1348       H  0.00313760  0.34921562  0.38768213     0.08600
H1349       H  0.07600450  0.42861149  0.46504535     0.27100
H1350       H  0.09300012  0.37220621  0.31105846     0.21900
H1351       H  0.99945063  0.27680007  0.35246055     0.27200
H1352       H  0.00324487  0.39561967  0.33666386     0.16000
C1353       C  0.83834400  0.22371050  0.37751303    -0.11300
C1354       C  0.85846284  0.20360257  0.38301329     0.15300
C1355       C  0.85669360  0.18794731  0.40760074     0.02200
C1356       C  0.83581639  0.19388238  0.42686228    -0.15600
C1357       C  0.81656726  0.21510214  0.42200627    -0.10400
C1358       C  0.81725572  0.22933140  0.39643921     0.08900
C1359       C  0.88255191  0.20212692  0.36417714     0.09900
S1360       S  0.88097672  0.16090618  0.41591391    -0.24800
H1361       H  0.83532263  0.18264579  0.44625280     0.20200
S1362       S  0.79193718  0.25495146  0.38667684    -0.30500
H1363       H  0.83950405  0.23564121  0.35855629     0.10500
C1364       C  0.87989682  0.19326129  0.33655454     0.03700
C1365       C  0.90189445  0.19738347  0.31801416    -0.12800
C1366       C  0.92640316  0.21012250  0.32673182    -0.08400
C1367       C  0.92985506  0.21660535  0.35495872     0.07200
C1368       C  0.90780302  0.21292245  0.37328585    -0.13500
S1369       S  0.84822365  0.17747334  0.32484863    -0.30400
H1370       H  0.89948039  0.19207685  0.29640604     0.11400
S1371       S  0.96177751  0.22979422  0.36878193    -0.27500
H1372       H  0.91003107  0.21934706  0.39463157     0.08600
H1373       H  0.76972132  0.24218649  0.40049277     0.27100
H1374       H  0.85735802  0.17136689  0.29790690     0.21900
H1375       H  0.97910675  0.21801857  0.34858883     0.27200
H1376       H  0.88776854  0.15420530  0.38844525     0.16000
C1377       C  0.90172270  0.89438311  0.06168897    -0.11300
C1378       C  0.87938540  0.89248749  0.04331370     0.15300
C1379       C  0.87701793  0.91191262  0.02168668     0.02200
C1380       C  0.89790926  0.93134889  0.01759327    -0.15600
C1381       C  0.92124484  0.93236251  0.03480506    -0.10400
C1382       C  0.92272547  0.91407137  0.05764801     0.08900
C1383       C  0.86141287  0.86773235  0.04377183     0.09900
S1384       S  0.84886218  0.91161057  0.99725704    -0.24800
H1385       H  0.89618426  0.94550455  0.00028957     0.20200
S1386       S  0.95175297  0.91317658  0.08089303    -0.30500
H1387       H  0.90368582  0.87935870  0.07820197     0.10500
C1388       C  0.86652483  0.84586788  0.02524091     0.03700
C1389       C  0.84640862  0.82547028  0.02145763    -0.12800
C1390       C  0.82121105  0.82630291  0.03589176    -0.08400
C1391       C  0.81682363  0.84733646  0.05575478     0.07200
C1392       C  0.83715916  0.86765003  0.05973943    -0.13500
S1393       S  0.89824243  0.84467058  0.00543690    -0.30400
H1394       H  0.84996346  0.80915221  0.00654699     0.11400
S1395       S  0.78491754  0.85088366  0.07472991    -0.27500
H1396       H  0.83319906  0.88456608  0.07388016     0.08600
H1397       H  0.97183995  0.91571577  0.05997587     0.27100
H1398       H  0.89270350  0.81984094  0.99138365     0.21900
H1399       H  0.76769483  0.84419291  0.05232175     0.27200
H1400       H  0.82869077  0.90195466  0.01580940     0.16000
C1401       C  0.16204319  0.12728321  0.97892380    -0.11300
C1402       C  0.13759415  0.13405859  0.96499626     0.15300
C1403       C  0.13422647  0.16110155  0.95452872     0.02200
C1404       C  0.15487455  0.18094820  0.95899357    -0.15600
C1405       C  0.17912531  0.17450145  0.97367516    -0.10400
C1406       C  0.18254800  0.14712803  0.98375858     0.08900
C1407       C  0.11450589  0.11385537  0.96566443     0.09900
S1408       S  0.10371175  0.17166960  0.93595561    -0.24800
H1409       H  0.15183970  0.20170422  0.95108803     0.20200
S1410       S  0.21110973  0.13664865  0.00527111    -0.30500
H1411       H  0.16441445  0.10673619  0.98759439     0.10500
C1412       C  0.11433704  0.08982920  0.94916618     0.03700
C1413       C  0.09294841  0.07034086  0.95243795    -0.12800
C1414       C  0.07179820  0.07440298  0.97200825    -0.08400
C1415       C  0.07237296  0.09844250  0.98868243     0.07200
C1416       C  0.09330282  0.11801118  0.98496188    -0.13500
S1417       S  0.14125864  0.08416668  0.92391260    -0.30400
H1418       H  0.09272267  0.05184513  0.93985138     0.11400
S1419       S  0.04846373  0.10438438  0.01669741    -0.27500
H1420       H  0.09377117  0.13614237  0.99811400     0.08600
H1421       H  0.20996176  0.16027043  0.02222126     0.27100
H1422       H  0.13060700  0.05936327  0.91314883     0.21900
H1423       H  0.04731835  0.07663714  0.02538970     0.27200
H1424       H  0.09725763  0.14538014  0.92540722     0.16000
C1425       C  0.05308285  0.86535431  0.83996981    -0.11300
C1426       C  0.04246752  0.86084437  0.86661902     0.15300
C1427       C  0.03095360  0.83484299  0.87310046     0.02200
C1428       C  0.02849909  0.81474602  0.85246772    -0.15600
C1429       C  0.03743272  0.81973083  0.82520895    -0.10400
C1430       C  0.05115572  0.84496528  0.81938566     0.10500
C1431       C  0.03899272  0.88472736  0.88555309     0.09900
S1432       S  0.01688353  0.82684894  0.90673679    -0.24800
H1433       H  0.01818040  0.79551192  0.85753986     0.20200
S1434       S  0.06660492  0.85245148  0.78628810    -0.30500
H1435       H  0.06215741  0.88521789  0.83493833     0.10500
C1436       C  0.05920994  0.89263965  0.90493001     0.03700
C1437       C  0.05330312  0.91398885  0.92390138    -0.12800
C1438       C  0.02765284  0.92782208  0.92357212    -0.08400
C1439       C  0.00830128  0.92084348  0.90267754     0.07200
C1440       C  0.01398219  0.89917353  0.88446727    -0.13500
S1441       S  0.09194140  0.87476797  0.90614097    -0.30400
H1442       H  0.06835768  0.91933891  0.93951977     0.11400
S1443       S  0.97626118  0.93918054  0.89725664    -0.27500
H1444       H  0.99870037  0.89350467  0.86912725     0.08600
H1445       H  0.07492542  0.82503924  0.78113925     0.27100
H1446       H  0.10334116  0.89023948  0.92792397     0.21900
H1447       H  0.98760628  0.96546718  0.90238387     0.27200
H1448       H  0.03491420  0.84381240  0.92182478     0.16000
C1449       C  0.15655226  0.95179771  0.13449225    -0.11300
C1450       C  0.13188519  0.96702881  0.13612907     0.15300
C1451       C  0.12688186  0.98349787  0.15972720     0.02200
C1452       C  0.14679861  0.98492306  0.18063981    -0.15600
C1453       C  0.17213260  0.97079644  0.17844329    -0.10400
C1454       C  0.17658325  0.95335739  0.15535694     0.08900
C1455       C  0.11206756  0.96599003  0.11271824     0.09900
S1456       S  0.09606625  0.00415416  0.16392213    -0.24800
H1457       H  0.14300932  0.99838403  0.19814635     0.20200
S1458       S  0.20696354  0.93206893  0.15156639    -0.30500
H1459       H  0.16027255  0.93869435  0.11670222     0.10500
C1460       C  0.11834601  0.97851293  0.08713410     0.03700
C1461       C  0.09814540  0.97954345  0.06639091    -0.12800
C1462       C  0.07157092  0.96852583  0.07062225    -0.08400
C1463       C  0.06592203  0.95453370  0.09574537     0.07200
C1464       C  0.08608577  0.95365056  0.11652879    -0.13500
S1465       S  0.15141870  0.99498505  0.08153697    -0.30400
H1466       H  0.10263882  0.99032702  0.04728817     0.11400
S1467       S  0.03365340  0.93712599  0.10247378    -0.27500
H1468       H  0.08139131  0.94356989  0.13599390     0.08600
H1469       H  0.20985710  0.92656189  0.17998463     0.27100
H1470       H  0.14616995  0.00461694  0.05460814     0.21900
H1471       H  0.02932403  0.92899063  0.07489702     0.27200
H1472       H  0.09268068  0.01056245  0.13578115     0.16000
C1473       C  0.88561246  0.05627495  0.90577846    -0.11300
C1474       C  0.88305911  0.03717116  0.88412459     0.15300
C1475       C  0.90232414  0.01535481  0.88189828     0.02200
C1476       C  0.92274901  0.01228807  0.90197988    -0.15600
C1477       C  0.92486846  0.03067065  0.92434553    -0.10400
C1478       C  0.90613026  0.05312815  0.92605773     0.08900
C1479       C  0.85859260  0.03820246  0.86584366     0.09900
S1480       S  0.90111453  0.98984238  0.85468886    -0.24800
H1481       H  0.93701274  0.99507621  0.90025405     0.20200
S1482       S  0.90577827  0.07701544  0.95461006    -0.30500
H1483       H  0.87065107  0.07285535  0.90769254     0.10500
C1484       C  0.83680470  0.01926341  0.86952162     0.03700
C1485       C  0.81682053  0.01648552  0.84884709    -0.12800
C1486       C  0.81809509  0.03221454  0.82443968    -0.08400
C1487       C  0.83897969  0.05250529  0.82163382     0.07200
C1488       C  0.85880334  0.05552356  0.84256236    -0.13500
S1489       S  0.83522264  0.99767641  0.90001689    -0.30400
H1490       H  0.80059369  0.00125793  0.85124501     0.11400
S1491       S  0.84308185  0.07323579  0.79093025    -0.27500
H1492       H  0.87563340  0.07002744  0.83974507     0.08600
H1493       H  0.91010964  0.05666792  0.97495558     0.27100
H1494       H  0.81094562  0.98335638  0.89297205     0.21900
H1495       H  0.83810846  0.05142027  0.77238181     0.27200
H1496       H  0.89001344  0.00731165  0.83431927     0.16000
C1497       C  0.96776994  0.12412027  0.08722277    -0.11300
C1498       C  0.96232999  0.11512653  0.11420324     0.15300
C1499       C  0.95687850  0.08688559  0.11899699     0.02200
C1500       C  0.95964670  0.06799258  0.09730215    -0.15600
C1501       C  0.96689110  0.07654384  0.07039808    -0.10400
C1502       C  0.96981998  0.10535412  0.06516521     0.08900
C1503       C  0.96475350  0.13537844  0.13705394     0.09900
S1504       S  0.94702345  0.07354230  0.15245542    -0.24800
H1505       H  0.95645397  0.04623976  0.10169658     0.20200
S1506       S  0.97729587  0.11892612  0.03109469    -0.30500
H1507       H  0.97143957  0.14593618  0.08371565     0.10500
C1508       C  0.98655205  0.13368470  0.15630828     0.03700
C1509       C  0.98847994  0.15348882  0.17729813    -0.12800
C1510       C  0.96967237  0.17552874  0.17900762    -0.08400
C1511       C  0.94794974  0.17733700  0.15963259     0.07200
C1512       C  0.94579565  0.15731558  0.13880294    -0.13500
S1513       S  0.01299306  0.10740617  0.15317854    -0.30400
H1514       H  0.00541166  0.15245848  0.19189114     0.11400
S1515       S  0.92210552  0.20419273  0.16075766    -0.27500
H1516       H  0.92914403  0.15872935  0.12391619     0.08600
H1517       H  0.97808722  0.14710997  0.03819213     0.27100
H1518       H  0.02828512  0.11493699  0.17669572     0.21900
H1519       H  0.92247810  0.20753537  0.18963331     0.27200
H1520       H  0.93523153  0.09817400  0.16243125     0.16000
loop_ 
_geom_bond_atom_site_label_1 
_geom_bond_atom_site_label_2 
_geom_bond_distance 
_geom_bond_site_symmetry_2 
_ccdc_geom_bond_type 
O1           C17   1.272   1_565  A
O1           Zn7   1.996       .  S
C2           O18   1.272   1_455  A
C2           O15   1.278       .  A
C2         C1438   1.492       .  S
O3           C16   1.276       .  A
O3          Cd10   2.094       .  S
O4           C22   1.278       .  A
O4          Cd13   2.081   1_554  S
O5           C19   1.276       .  A
O5           Cd9   2.077   1_455  S
O6           C17   1.276       .  A
O6           Cd9   2.092       .  S
Zn7          O18   2.003       .  S
Zn7          O20   1.998   1_556  S
Zn7          O12   1.922   1_565  S
O8           C19   1.277       .  A
O8          Cd13   2.084   1_545  S
Cd9          O11   2.073   1_556  S
Cd9          O12   2.011       .  S
Cd10         O14   2.076   1_565  S
Cd10         O23   2.076   1_655  S
Cd10         O12   2.011   1_564  S
O11          C21   1.274       .  A
O12         Cd13   2.013   1_645  S
Cd13         O15   2.102       .  S
O14          C21   1.277       .  A
C16          O20   1.273       .  A
C16        C1381   1.484       .  S
C17        C1477   1.483       .  S
C19        C1414   1.483       .  S
C21        C1501   1.495       .  S
C22          O23   1.276       .  A
C22        C1462   1.487       .  S
O24          C40   1.273   1_655  A
O24         Zn30   2.005       .  S
C25          O41   1.275       .  A
C25          O38   1.276       .  A
C25        C1294   1.476       .  S
O26          C39   1.273       .  A
O26         Cd33   2.073       .  S
O27          C45   1.276       .  A
O27         Cd36   2.085       .  S
O28          C42   1.276       .  A
O28         Cd32   2.077       .  S
O29          C40   1.277       .  A
O29         Cd32   2.091       .  S
Zn30         O41   2.014       .  S
Zn30         O43   2.016       .  S
Zn30         O35   1.930       .  S
O31          C42   1.277       .  A
O31         Cd36   2.087   1_455  S
Cd32         O34   2.073       .  S
Cd32         O35   2.009   1_455  S
Cd33         O37   2.056   1_655  S
Cd33         O46   2.057       .  S
Cd33         O35   2.001       .  S
O34          C44   1.275       .  A
O35         Cd36   2.011       .  S
Cd36         O38   2.082       .  S
O37          C44   1.274       .  A
C39          O43   1.273       .  A
C39        C1366   1.472       .  S
C40        C1342   1.484       .  S
C42        C1318   1.487       .  S
C44        C1261   1.482       .  S
C45          O46   1.273       .  A
C45        C1510   1.474       .  S
O47          C63   1.272       .  A
O47         Zn53   1.997       .  S
C48          O64   1.273       .  A
C48          O61   1.278       .  A
C48        C1165   1.488       .  S
O49          C62   1.275       .  A
O49         Cd56   2.081       .  S
O50          C68   1.278       .  A
O50         Cd59   2.084       .  S
O51          C65   1.274       .  A
O51         Cd55   2.058       .  S
O52          C63   1.276       .  A
O52         Cd55   2.092       .  S
Zn53         O64   1.997       .  S
Zn53         O66   2.002       .  S
Zn53         O58   1.920       .  S
O54          C65   1.278       .  A
O54         Cd59   2.094       .  S
Cd55         O57   2.070       .  S
Cd55         O58   2.007       .  S
Cd56         O60   2.061       .  S
Cd56         O69   2.066       .  S
Cd56         O58   2.004       .  S
O57          C67   1.275       .  A
O58         Cd59   2.015       .  S
Cd59         O61   2.100       .  S
O60          C67   1.273       .  A
C62          O66   1.272       .  A
C62        C1357   1.478       .  S
C63        C1189   1.483       .  S
C65        C1213   1.481       .  S
C67        C1150   1.483       .  S
C68          O69   1.274       .  A
C68        C1246   1.488       .  S
O70          C86   1.272   1_565  A
O70         Zn76   1.996       .  S
C71          O87   1.272       .  A
C71          O84   1.276       .  A
C71        C1117   1.481       .  S
O72          C85   1.278       .  A
O72         Cd79   2.102       .  S
O73          C91   1.274       .  A
O73         Cd82   2.067       .  S
O74          C88   1.276       .  A
O74         Cd78   2.076       .  S
O75          C86   1.276       .  A
O75         Cd78   2.090       .  S
Zn76         O87   2.001       .  S
Zn76         O89   2.003       .  S
Zn76         O81   1.923       .  S
O77          C88   1.276       .  A
O77         Cd82   2.076   1_545  S
Cd78         O80   2.073       .  S
Cd78         O81   2.010   1_545  S
Cd79         O83   2.076   1_565  S
Cd79         O92   2.081       .  S
Cd79         O81   2.010       .  S
O80          C90   1.276       .  A
O81         Cd82   2.007       .  S
Cd82         O84   2.084       .  S
O83          C90   1.276       .  A
C85          O89   1.272       .  A
C85        C1054   1.482       .  S
C86        C1486   1.480       .  S
C88        C1069   1.486       .  S
C90        C1237   1.480       .  S
C91          O92   1.277       .  A
C91        C1102   1.488       .  S
O93         C109   1.272       .  A
O93         Zn99   1.994       .  S
C94         O110   1.273   1_545  A
C94         O107   1.276       .  A
C94         C958   1.484       .  S
O95         C108   1.275       .  A
O95        Cd102   2.087       .  S
O96         C114   1.277       .  A
O96        Cd105   2.076       .  S
O97         C111   1.276       .  A
O97        Cd101   2.074   1_545  S
O98         C109   1.276       .  A
O98        Cd101   2.093       .  S
Zn99        O110   2.007       .  S
Zn99        O112   2.003       .  S
Zn99        O104   1.925       .  S
O100        C111   1.276       .  A
O100       Cd105   2.078       .  S
Cd101       O103   2.083       .  S
Cd101       O104   2.012       .  S
Cd102       O106   2.077       .  S
Cd102       O115   2.063   1_565  S
Cd102       O104   2.008       .  S
O103        C113   1.277       .  A
O104       Cd105   2.011   1_565  S
Cd105       O107   2.091       .  S
O106        C113   1.276       .  A
C108        O112   1.272       .  A
C108       C1006   1.474       .  S
C109       C1021   1.484       .  S
C111        C982   1.488       .  S
C113       C1453   1.487       .  S
C114        O115   1.274       .  A
C114       C1270   1.480       .  S
O116        C132   1.272       .  A
O116       Zn122   2.003       .  S
C117        O133   1.274   1_655  A
C117        O130   1.277       .  A
C117        C934   1.485       .  S
O118        C131   1.277       .  A
O118       Cd125   2.095       .  S
O119        C137   1.277       .  A
O119       Cd128   2.076       .  S
O120        C134   1.273       .  A
O120       Cd124   2.060   1_655  S
O121        C132   1.275       .  A
O121       Cd124   2.080       .  S
Zn122       O133   2.009       .  S
Zn122       O135   2.005       .  S
Zn122       O127   1.929       .  S
O123        C134   1.277       .  A
O123       Cd128   2.083       .  S
Cd124       O126   2.073       .  S
Cd124       O127   2.008       .  S
Cd125       O129   2.083       .  S
Cd125       O138   2.082   1_455  S
Cd125       O127   2.010       .  S
O126        C136   1.276       .  A
O127       Cd128   2.012   1_455  S
Cd128       O130   2.094       .  S
O129        C136   1.277       .  A
C131        O135   1.273       .  A
C131        C862   1.479       .  S
C132        C901   1.482       .  S
C134        C877   1.482       .  S
C136       C1333   1.487       .  S
C137        O138   1.277       .  A
C137       C1174   1.491       .  S
O139        C155   1.273       .  A
O139       Zn145   2.008       .  S
C140        O156   1.273       .  A
C140        O153   1.276       .  A
C140        C805   1.479       .  S
O141        C154   1.276       .  A
O141       Cd148   2.086       .  S
O142        C160   1.276       .  A
O142       Cd151   2.077       .  S
O143        C157   1.276       .  A
O143       Cd147   2.085       .  S
O144        C155   1.278       .  A
O144       Cd147   2.102       .  S
Zn145       O156   2.002       .  S
Zn145       O158   2.014       .  S
Zn145       O150   1.932       .  S
O146        C157   1.277       .  A
O146       Cd151   2.080       .  S
Cd147       O149   2.088       .  S
Cd147       O150   2.007       .  S
Cd148       O152   2.071       .  S
Cd148       O161   2.080       .  S
Cd148       O150   2.006       .  S
O149        C159   1.278       .  A
O150       Cd151   2.010       .  S
Cd151       O153   2.088       .  S
O152        C159   1.274       .  A
C154        O158   1.273       .  A
C154        C757   1.480       .  S
C155        C838   1.479       .  S
C157        C781   1.502       .  S
C159       C1222   1.496       .  S
C160        O161   1.276       .  A
C160       C1078   1.488       .  S
O162        C178   1.273       .  A
O162       Zn168   2.000       .  S
C163        O179   1.272       .  A
C163        O176   1.275       .  A
C163       C1126   1.477       .  S
O164        C177   1.275       .  A
O164       Cd171   2.087       .  S
O165        C183   1.275       .  A
O165       Cd174   2.068   1_554  S
O166        C180   1.276       .  A
O166       Cd170   2.073       .  S
O167        C178   1.276       .  A
O167       Cd170   2.086       .  S
Zn168       O179   2.004       .  S
Zn168       O181   1.999   1_556  S
Zn168       O173   1.923   1_556  S
O169        C180   1.275       .  A
O169       Cd174   2.073       .  S
Cd170       O172   2.079   1_556  S
Cd170       O173   2.007   1_556  S
Cd171       O175   2.075       .  S
Cd171       O184   2.069       .  S
Cd171       O173   2.007       .  S
O172        C182   1.276       .  A
O173       Cd174   2.007   1_554  S
Cd174       O176   2.085       .  S
O175        C182   1.276       .  A
C177        O181   1.272       .  A
C177       C1390   1.479       .  S
C178        C733   1.482       .  S
C180        C661   1.488       .  S
C182        C709   1.486       .  S
C183        O184   1.275       .  A
C183        C685   1.484       .  S
O185        C201   1.273       .  A
O185       Zn191   2.006       .  S
C186        O202   1.272       .  A
C186        O199   1.277       .  A
C186        C613   1.476       .  S
O187        C200   1.278       .  A
O187       Cd194   2.106       .  S
O188        C206   1.278       .  A
O188       Cd197   2.082   1_554  S
O189        C203   1.275       .  A
O189       Cd193   2.076       .  S
O190        C201   1.275       .  A
O190       Cd193   2.084       .  S
Zn191       O202   2.001       .  S
Zn191       O204   2.003   1_556  S
Zn191       O196   1.929   1_556  S
O192        C203   1.277       .  A
O192       Cd197   2.087       .  S
Cd193       O195   2.070   1_556  S
Cd193       O196   2.010   1_556  S
Cd194       O198   2.079       .  S
Cd194       O207   2.086       .  S
Cd194       O196   2.014       .  S
O195        C205   1.275       .  A
O196       Cd197   2.011   1_554  S
Cd197       O199   2.096       .  S
O198        C205   1.277       .  A
C200        O204   1.273       .  A
C200        C637   1.488       .  S
C201        C814   1.478       .  S
C203       C1405   1.491       .  S
C205        C973   1.484       .  S
C206        O207   1.277       .  A
C206       C1309   1.494       .  S
O208        C224   1.272       .  A
O208       Zn214   2.002       .  S
C209        O225   1.271       .  A
C209        O222   1.278       .  A
C209       C1285   1.482       .  S
O210        C223   1.275       .  A
O210       Cd217   2.083       .  S
O211        C229   1.277       .  A
O211       Cd220   2.080       .  S
O212        C226   1.276       .  A
O212       Cd216   2.071       .  S
O213        C224   1.277       .  A
O213       Cd216   2.095       .  S
Zn214       O225   1.993       .  S
Zn214       O227   1.993       .  S
Zn214       O219   1.921       .  S
O215        C226   1.277       .  A
O215       Cd220   2.081       .  S
Cd216       O218   2.077       .  S
Cd216       O219   2.007       .  S
Cd217       O221   2.063       .  S
Cd217       O230   2.073       .  S
Cd217       O219   2.007       .  S
O218        C228   1.276       .  A
O219       Cd220   2.011       .  S
Cd220       O222   2.095       .  S
O221        C228   1.273       .  A
C223        O227   1.271       .  A
C223        C886   1.477       .  S
C224       C1198   1.482       .  S
C226        C565   1.484       .  S
C228        C589   1.485       .  S
C229        O230   1.275       .  A
C229        C718   1.489       .  S
O231        C247   1.275       .  A
O231       Zn237   2.016       .  S
C232        O248   1.273       .  A
C232        O245   1.276       .  A
C232        C949   1.479       .  S
O233        C246   1.276       .  A
O233       Cd240   2.091       .  S
O234        C252   1.275       .  A
O234       Cd243   2.068       .  S
O235        C249   1.276       .  A
O235       Cd239   2.078   1_545  S
O236        C247   1.278       .  A
O236       Cd239   2.093       .  S
Zn237       O248   2.006   1_565  S
Zn237       O250   2.010       .  S
Zn237       O242   1.927       .  S
O238        C249   1.276       .  A
O238       Cd243   2.079       .  S
Cd239       O241   2.081       .  S
Cd239       O242   2.011       .  S
Cd240       O244   2.069       .  S
Cd240       O253   2.071   1_565  S
Cd240       O242   2.011       .  S
O241        C251   1.276       .  A
O242       Cd243   2.012   1_565  S
Cd243       O245   2.092       .  S
O244        C251   1.275       .  A
C246        O250   1.274       .  A
C246        C526   1.483       .  S
C247        C541   1.486       .  S
C249        C790   1.482       .  S
C251       C1093   1.484       .  S
C252        O253   1.275       .  A
C252       C1141   1.479       .  S
O254        C270   1.271   1_455  A
O254       Zn260   1.997       .  S
C255        O271   1.272       .  A
C255        O268   1.277       .  A
C255        C469   1.481       .  S
O256        C269   1.275       .  A
O256       Cd263   2.086       .  S
O257        C275   1.279       .  A
O257       Cd266   2.095       .  S
O258        C272   1.277       .  A
O258       Cd262   2.077       .  S
O259        C270   1.276       .  A
O259       Cd262   2.097       .  S
Zn260       O271   1.993       .  S
Zn260       O273   1.993       .  S
Zn260       O265   1.925       .  S
O261        C272   1.278       .  A
O261       Cd266   2.088   1_655  S
Cd262       O264   2.078       .  S
Cd262       O265   2.012   1_655  S
Cd263       O267   2.069   1_455  S
Cd263       O276   2.071       .  S
Cd263       O265   2.010       .  S
O264        C274   1.276       .  A
O265       Cd266   2.017       .  S
Cd266       O268   2.098       .  S
O267        C274   1.276       .  A
C269        O273   1.271       .  A
C269        C493   1.482       .  S
C270        C925   1.478       .  S
C272       C1045   1.487       .  S
C274        C742   1.484       .  S
C275        O276   1.276       .  A
C275       C1429   1.491       .  S
O277        C293   1.276       .  A
O277       Zn283   2.016       .  S
C278        O294   1.274       .  A
C278        O291   1.275       .  A
C278        C445   1.474       .  S
O279        C292   1.275       .  A
O279       Cd286   2.085       .  S
O280        C298   1.275       .  A
O280       Cd289   2.070       .  S
O281        C295   1.276       .  A
O281       Cd285   2.080       .  S
O282        C293   1.276       .  A
O282       Cd285   2.081       .  S
Zn283       O294   2.016       .  S
Zn283       O296   2.019       .  S
Zn283       O288   1.931       .  S
O284        C295   1.274       .  A
O284       Cd289   2.069       .  S
Cd285       O287   2.076       .  S
Cd285       O288   2.013       .  S
Cd286       O290   2.059       .  S
Cd286       O299   2.074       .  S
Cd286       O288   2.007       .  S
O287        C297   1.275       .  A
O288       Cd289   2.007       .  S
Cd289       O291   2.083       .  S
O290        C297   1.274       .  A
C292        O296   1.274       .  A
C292        C517   1.479       .  S
C293       C1030   1.482       .  S
C295        C430   1.484       .  S
C297        C694   1.477       .  S
C298        O299   1.276       .  A
C298        C598   1.481       .  S
O300        C316   1.275       .  A
O300       Zn306   2.013       .  S
C301        O317   1.273       .  A
C301        O314   1.274       .  A
C301        C910   1.472       .  S
O302        C315   1.278       .  A
O302       Cd309   2.104       .  S
O303        C321   1.275       .  A
O303       Cd312   2.067       .  S
O304        C318   1.276       .  A
O304       Cd308   2.082       .  S
O305        C316   1.276       .  A
O305       Cd308   2.086       .  S
Zn306       O317   2.010       .  S
Zn306       O319   2.009       .  S
Zn306       O311   1.933       .  S
O307        C318   1.275       .  A
O307       Cd312   2.072       .  S
Cd308       O310   2.080       .  S
Cd308       O311   2.012       .  S
Cd309       O313   2.085       .  S
Cd309       O322   2.089       .  S
Cd309       O311   2.015       .  S
O310        C320   1.276       .  A
O311       Cd312   2.010       .  S
Cd312       O314   2.081       .  S
O313        C320   1.278       .  A
C315        O319   1.273       .  A
C315        C397   1.490       .  S
C316        C478   1.482       .  S
C318        C997   1.483       .  S
C320        C550   1.493       .  S
C321        O322   1.279       .  A
C321        C454   1.486       .  S
O323        C339   1.272       .  A
O323       Zn329   1.996       .  S
C324        O340   1.273       .  A
C324        O337   1.277       .  A
C324        C373   1.488       .  S
O325        C338   1.277       .  A
O325       Cd332   2.095       .  S
O326        C344   1.278       .  A
O326       Cd335   2.082       .  S
O327        C341   1.276       .  A
O327       Cd331   2.079       .  S
O328        C339   1.277       .  A
O328       Cd331   2.098       .  S
Zn329       O340   2.001       .  S
Zn329       O342   2.011       .  S
Zn329       O334   1.930       .  S
O330        C341   1.279       .  A
O330       Cd335   2.098       .  S
Cd331       O333   2.082       .  S
Cd331       O334   2.011       .  S
Cd332       O336   2.080       .  S
Cd332       O345   2.073       .  S
Cd332       O334   2.011       .  S
O333        C343   1.278       .  A
O334       Cd335   2.018       .  S
Cd335       O337   2.100       .  S
O336        C343   1.276       .  A
C338        O342   1.273       .  A
C338        C622   1.484       .  S
C339        C829   1.480       .  S
C341        C406   1.496       .  S
C343        C853   1.491       .  S
C344        O345   1.276       .  A
C344        C502   1.491       .  S
O346        C362   1.272       .  A
O346       Zn352   1.999       .  S
C347        O363   1.273       .  A
C347        O360   1.278       .  A
C347        C646   1.485       .  S
O348        C361   1.277       .  A
O348       Cd355   2.098       .  S
O349        C367   1.277       .  A
O349       Cd358   2.082       .  S
O350        C364   1.276       .  A
O350       Cd354   2.080   1_554  S
O351        C362   1.277       .  A
O351       Cd354   2.098       .  S
Zn352       O363   2.000   1_556  S
Zn352       O365   1.998       .  S
Zn352       O357   1.921       .  S
O353        C364   1.277       .  A
O353       Cd358   2.077       .  S
Cd354       O356   2.080       .  S
Cd354       O357   2.016       .  S
Cd355       O359   2.070       .  S
Cd355       O368   2.072   1_556  S
Cd355       O357   2.010       .  S
O356        C366   1.276       .  A
O357       Cd358   2.013   1_556  S
Cd358       O360   2.102       .  S
O359        C366   1.276       .  A
C361        O365   1.272       .  A
C361        C382   1.486       .  S
C362        C766   1.482       .  S
C364        C574   1.491       .  S
C366        C670   1.482       .  S
C367        O368   1.275       .  A
C367        C421   1.488       .  S
C369        C370   1.404       .  A
C369        C374   1.407       .  A
C369        H379   1.084       .  S
C370        C375   1.484       .  S
C370        C371   1.411       .  A
C371        C372   1.397       .  A
C371        S376   1.805       .  S
C372        C373   1.406       .  A
C372        H377   1.084       .  S
C373        C374   1.417       .  A
C374        S378   1.801       .  S
C375        C380   1.408       .  A
C375        C384   1.404       .  A
S376        H392   1.405       .  S
S378        H389   1.407       .  S
C380        C381   1.400       .  A
C380        S385   1.808       .  S
C381        C382   1.406       .  A
C381        H386   1.083       .  S
C382        C383   1.417       .  A
C383        C384   1.406       .  A
C383        S387   1.802       .  S
C384        H388   1.084       .  S
S385        H390   1.407       .  S
S387        H391   1.407       .  S
C393        C394   1.400       .  A
C393        C398   1.398       .  A
C393        H403   1.084       .  S
C394        C399   1.489       .  S
C394        C395   1.415       .  A
C395        C396   1.407       .  A
C395        S400   1.803       .  S
C396        C397   1.407       .  A
C396        H401   1.084       .  S
C397        C398   1.417       .  A
C398        S402   1.802       .  S
C399        C404   1.410       .  A
C399        C408   1.401       .  A
S400        H416   1.405       .  S
S402        H413   1.407       .  S
C404        C405   1.408       .  A
C404        S409   1.806       .  S
C405        C406   1.409       .  A
C405        H410   1.082       .  S
C406        C407   1.420       .  A
C407        C408   1.402       .  A
C407        S411   1.803       .  S
C408        H412   1.084       .  S
S409        H414   1.407       .  S
S411        H415   1.408       .  S
C417        C418   1.403       .  A
C417        C422   1.401       .  A
C417        H427   1.084       .  S
C418        C423   1.484       .  S
C418        C419   1.412       .  A
C419        C420   1.400       .  A
C419        S424   1.805       .  S
C420        C421   1.407       .  A
C420        H425   1.084       .  S
C421        C422   1.417       .  A
C422        S426   1.803       .  S
C423        C428   1.410       .  A
C423        C432   1.403       .  A
S424        H440   1.406       .  S
S426        H437   1.407       .  S
C428        C429   1.403       .  A
C428        S433   1.807       .  S
C429        C430   1.406       .  A
C429        H434   1.083       .  S
C430        C431   1.416       .  A
C431        C432   1.401       .  A
C431        S435   1.803       .  S
C432        H436   1.084       .  S
S433        H438   1.407       .  S
S435        H439   1.407       .  S
C441        C442   1.403       .  A
C441        C446   1.397       .  A
C441        H451   1.084       .  S
C442        C447   1.487       .  S
C442        C443   1.416       .  A
C443        C444   1.404       .  A
C443        S448   1.803       .  S
C444        C445   1.403       .  A
C444        H449   1.084       .  S
C445        C446   1.410       .  A
C446        S450   1.800       .  S
C447        C452   1.412       .  A
C447        C456   1.402       .  A
S448        H464   1.406       .  S
S450        H461   1.406       .  S
C452        C453   1.406       .  A
C452        S457   1.807       .  S
C453        C454   1.406       .  A
C453        H458   1.083       .  S
C454        C455   1.418       .  A
C455        C456   1.398       .  A
C455        S459   1.804       .  S
C456        H460   1.084       .  S
S457        H462   1.407       .  S
S459        H463   1.407       .  S
C465        C466   1.405       .  A
C465        C470   1.406       .  A
C465        H475   1.084       .  S
C466        C471   1.481       .  S
C466        C467   1.410       .  A
C467        C468   1.395       .  A
C467        S472   1.804       .  S
C468        C469   1.404       .  A
C468        H473   1.084       .  S
C469        C470   1.415       .  A
C470        S474   1.802       .  S
C471        C476   1.408       .  A
C471        C480   1.402       .  A
S472        H488   1.403       .  S
S474        H485   1.407       .  S
C476        C477   1.402       .  A
C476        S481   1.807       .  S
C477        C478   1.405       .  A
C477        H482   1.083       .  S
C478        C479   1.416       .  A
C479        C480   1.403       .  A
C479        S483   1.802       .  S
C480        H484   1.084       .  S
S481        H486   1.407       .  S
S483        H487   1.407       .  S
C489        C490   1.404       .  A
C489        C494   1.403       .  A
C489        H499   1.084       .  S
C490        C495   1.481       .  S
C490        C491   1.411       .  A
C491        C492   1.396       .  A
C491        S496   1.806       .  S
C492        C493   1.406       .  A
C492        H497   1.084       .  S
C493        C494   1.415       .  A
C494        S498   1.801       .  S
C495        C500   1.408       .  A
C495        C504   1.401       .  A
S496        H512   1.405       .  S
S498        H509   1.407       .  S
C500        C501   1.402       .  A
C500        S505   1.807       .  S
C501        C502   1.408       .  A
C501        H506   1.082       .  S
C502        C503   1.420       .  A
C503        C504   1.401       .  A
C503        S507   1.802       .  S
C504        H508   1.084       .  S
S505        H510   1.407       .  S
S507        H511   1.408       .  S
C513        C514   1.400       .  A
C513        C518   1.396       .  A
C513        H523   1.084       .  S
C514        C519   1.482       .  S
C514        C515   1.413       .  A
C515        C516   1.406       .  A
C515        S520   1.803       .  S
C516        C517   1.405       .  A
C516        H521   1.084       .  S
C517        C518   1.412       .  A
C518        S522   1.800       .  S
C519        C524   1.408       .  A
C519        C528   1.403       .  A
S520        H536   1.405       .  S
S522        H533   1.407       .  S
C524        C525   1.402       .  A
C524        S529   1.807       .  S
C525        C526   1.406       .  A
C525        H530   1.083       .  S
C526        C527   1.416       .  A
C527        C528   1.404       .  A
C527        S531   1.802       .  S
C528        H532   1.084       .  S
S529        H534   1.407       .  S
S531        H535   1.407       .  S
C537        C538   1.405       .  A
C537        C542   1.406       .  A
C537        H547   1.084       .  S
C538        C543   1.486       .  S
C538        C539   1.412       .  A
C539        C540   1.398       .  A
C539        S544   1.805       .  S
C540        C541   1.405       .  A
C540        H545   1.084       .  S
C541        C542   1.416       .  A
C542        S546   1.802       .  S
C543        C548   1.409       .  A
C543        C552   1.403       .  A
S544        H560   1.405       .  S
S546        H557   1.407       .  S
C548        C549   1.404       .  A
C548        S553   1.807       .  S
C549        C550   1.408       .  A
C549        H554   1.082       .  S
C550        C551   1.419       .  A
C551        C552   1.404       .  A
C551        S555   1.803       .  S
C552        H556   1.084       .  S
S553        H558   1.407       .  S
S555        H559   1.408       .  S
C561        C562   1.402       .  A
C561        C566   1.398       .  A
C561        H571   1.084       .  S
C562        C567   1.486       .  S
C562        C563   1.413       .  A
C563        C564   1.404       .  A
C563        S568   1.803       .  S
C564        C565   1.406       .  A
C564        H569   1.084       .  S
C565        C566   1.417       .  A
C566        S570   1.805       .  S
C567        C572   1.409       .  A
C567        C576   1.401       .  A
S568        H584   1.406       .  S
S570        H581   1.408       .  S
C572        C573   1.404       .  A
C572        S577   1.807       .  S
C573        C574   1.408       .  A
C573        H578   1.082       .  S
C574        C575   1.420       .  A
C575        C576   1.401       .  A
C575        S579   1.803       .  S
C576        H580   1.084       .  S
S577        H582   1.407       .  S
S579        H583   1.408       .  S
C585        C586   1.400       .  A
C585        C590   1.398       .  A
C585        H595   1.084       .  S
C586        C591   1.481       .  S
C586        C587   1.411       .  A
C587        C588   1.401       .  A
C587        S592   1.803       .  S
C588        C589   1.407       .  A
C588        H593   1.084       .  S
C589        C590   1.419       .  A
C590        S594   1.804       .  S
C591        C596   1.409       .  A
C591        C600   1.401       .  A
S592        H608   1.406       .  S
S594        H605   1.408       .  S
C596        C597   1.405       .  A
C596        S601   1.806       .  S
C597        C598   1.406       .  A
C597        H602   1.083       .  S
C598        C599   1.417       .  A
C599        C600   1.397       .  A
C599        S603   1.804       .  S
C600        H604   1.084       .  S
S601        H606   1.407       .  S
S603        H607   1.408       .  S
C609        C610   1.403       .  A
C609        C614   1.399       .  A
C609        H619   1.084       .  S
C610        C615   1.487       .  S
C610        C611   1.415       .  A
C611        C612   1.403       .  A
C611        S616   1.803       .  S
C612        C613   1.403       .  A
C612        H617   1.084       .  S
C613        C614   1.413       .  A
C614        S618   1.805       .  S
C615        C620   1.411       .  A
C615        C624   1.402       .  A
S616        H632   1.406       .  S
S618        H629   1.407       .  S
C620        C621   1.408       .  A
C620        S625   1.806       .  S
C621        C622   1.406       .  A
C621        H626   1.083       .  S
C622        C623   1.416       .  A
C623        C624   1.399       .  A
C623        S627   1.804       .  S
C624        H628   1.084       .  S
S625        H630   1.407       .  S
S627        H631   1.407       .  S
C633        C634   1.405       .  A
C633        C638   1.408       .  A
C633        H643   1.084       .  S
C634        C639   1.485       .  S
C634        C635   1.411       .  A
C635        C636   1.397       .  A
C635        S640   1.805   1_554  S
C636        C637   1.406       .  A
C636        H641   1.084       .  S
C637        C638   1.417       .  A
C638        S642   1.802       .  S
C639        C644   1.408       .  A
C639        C648   1.405       .  A
S640        H656   1.404   1_556  S
S642        H653   1.407       .  S
C644        C645   1.400       .  A
C644        S649   1.808       .  S
C645        C646   1.406       .  A
C645        H650   1.083       .  S
C646        C647   1.416       .  A
C647        C648   1.407       .  A
C647        S651   1.802       .  S
C648        H652   1.084       .  S
S649        H654   1.407   1_554  S
S651        H655   1.407       .  S
C657        C658   1.402       .  A
C657        C662   1.401       .  A
C657        H667   1.084       .  S
C658        C663   1.482       .  S
C658        C659   1.411       .  A
C659        C660   1.399       .  A
C659        S664   1.805       .  S
C660        C661   1.408       .  A
C660        H665   1.084       .  S
C661        C662   1.417       .  A
C662        S666   1.803       .  S
C663        C668   1.409       .  A
C663        C672   1.403       .  A
S664        H680   1.406   1_556  S
S666        H677   1.407       .  S
C668        C669   1.401       .  A
C668        S673   1.808   1_556  S
C669        C670   1.406       .  A
C669        H674   1.083   1_556  S
C670        C671   1.415       .  A
C671        C672   1.402       .  A
C671        S675   1.802       .  S
C672        H676   1.084       .  S
S673        H678   1.407       .  S
S675        H679   1.407       .  S
C681        C682   1.402       .  A
C681        C686   1.400       .  A
C681        H691   1.084       .  S
C682        C687   1.477       .  S
C682        C683   1.410       .  A
C683        C684   1.397       .  A
C683        S688   1.805       .  S
C684        C685   1.407       .  A
C684        H689   1.084       .  S
C685        C686   1.417       .  A
C686        S690   1.803       .  S
C687        C692   1.408       .  A
C687        C696   1.403       .  A
S688        H704   1.406       .  S
S690        H701   1.408       .  S
C692        C693   1.398       .  A
C692        S697   1.809       .  S
C693        C694   1.405       .  A
C693        H698   1.083       .  S
C694        C695   1.414       .  A
C695        C696   1.402       .  A
C695        S699   1.803       .  S
C696        H700   1.084       .  S
S697        H702   1.407       .  S
S699        H703   1.407       .  S
C705        C706   1.404       .  A
C705        C710   1.403       .  A
C705        H715   1.084       .  S
C706        C711   1.485       .  S
C706        C707   1.412       .  A
C707        C708   1.399       .  A
C707        S712   1.805       .  S
C708        C709   1.406       .  A
C708        H713   1.084       .  S
C709        C710   1.416       .  A
C710        S714   1.803       .  S
C711        C716   1.409       .  A
C711        C720   1.402       .  A
S712        H728   1.406       .  S
S714        H725   1.407       .  S
C716        C717   1.403       .  A
C716        S721   1.808       .  S
C717        C718   1.408       .  A
C717        H722   1.082       .  S
C718        C719   1.418       .  A
C719        C720   1.402       .  A
C719        S723   1.802       .  S
C720        H724   1.084       .  S
S721        H726   1.407       .  S
S723        H727   1.407       .  S
C729        C730   1.403       .  A
C729        C734   1.403       .  A
C729        H739   1.084       .  S
C730        C735   1.478       .  S
C730        C731   1.410       .  A
C731        C732   1.396       .  A
C731        S736   1.806       .  S
C732        C733   1.406       .  A
C732        H737   1.084       .  S
C733        C734   1.416       .  A
C734        S738   1.802       .  S
C735        C740   1.408       .  A
C735        C744   1.401       .  A
S736        H752   1.404       .  S
S738        H749   1.407       .  S
C740        C741   1.402       .  A
C740        S745   1.807       .  S
C741        C742   1.407       .  A
C741        H746   1.083       .  S
C742        C743   1.416       .  A
C743        C744   1.401       .  A
C743        S747   1.802       .  S
C744        H748   1.084       .  S
S745        H750   1.407       .  S
S747        H751   1.407       .  S
C753        C754   1.403       .  A
C753        C758   1.404       .  A
C753        H763   1.083       .  S
C754        C759   1.484       .  S
C754        C755   1.413       .  A
C755        C756   1.402       .  A
C755        S760   1.803       .  S
C756        C757   1.403       .  A
C756        H761   1.084       .  S
C757        C758   1.413       .  A
C758        S762   1.808       .  S
C759        C764   1.411       .  A
C759        C768   1.400       .  A
S760        H776   1.406       .  S
S762        H773   1.407       .  S
C764        C765   1.409       .  A
C764        S769   1.805       .  S
C765        C766   1.406       .  A
C765        H770   1.083       .  S
C766        C767   1.416       .  A
C767        C768   1.396       .  A
C767        S771   1.805       .  S
C768        H772   1.084       .  S
S769        H774   1.407       .  S
S771        H775   1.407       .  S
C777        C778   1.402       .  A
C777        C782   1.401       .  A
C777        H787   1.084       .  S
C778        C783   1.490       .  S
C778        C779   1.412       .  A
C779        C780   1.403       .  A
C779        S784   1.804       .  S
C780        C781   1.412       .  A
C780        H785   1.083       .  S
C781        C782   1.423       .  A
C782        S786   1.801       .  S
C783        C788   1.413       .  A
C783        C792   1.403       .  A
S784        H800   1.406       .  S
S786        H797   1.408       .  S
C788        C789   1.407       .  A
C788        S793   1.806       .  S
C789        C790   1.405       .  A
C789        H794   1.083       .  S
C790        C791   1.416       .  A
C791        C792   1.400       .  A
C791        S795   1.805       .  S
C792        H796   1.084       .  S
S793        H798   1.407       .  S
S795        H799   1.407       .  S
C801        C802   1.400       .  A
C801        C806   1.397       .  A
C801        H811   1.084       .  S
C802        C807   1.479       .  S
C802        C803   1.412       .  A
C803        C804   1.403       .  A
C803        S808   1.803       .  S
C804        C805   1.405       .  A
C804        H809   1.084       .  S
C805        C806   1.416       .  A
C806        S810   1.805       .  S
C807        C812   1.409       .  A
C807        C816   1.400       .  A
S808        H824   1.405       .  S
S810        H821   1.407       .  S
C812        C813   1.406       .  A
C812        S817   1.805       .  S
C813        C814   1.405       .  A
C813        H818   1.083       .  S
C814        C815   1.415       .  A
C815        C816   1.397       .  A
C815        S819   1.805       .  S
C816        H820   1.084       .  S
S817        H822   1.407       .  S
S819        H823   1.407       .  S
C825        C826   1.402       .  A
C825        C830   1.398       .  A
C825        H835   1.084       .  S
C826        C831   1.486       .  S
C826        C827   1.414       .  A
C827        C828   1.405       .  A
C827        S832   1.803       .  S
C828        C829   1.404       .  A
C828        H833   1.084       .  S
C829        C830   1.415       .  A
C830        S834   1.806       .  S
C831        C836   1.411       .  A
C831        C840   1.402       .  A
S832        H848   1.406       .  S
S834        H845   1.407       .  S
C836        C837   1.407       .  A
C836        S841   1.805       .  S
C837        C838   1.404       .  A
C837        H842   1.083       .  S
C838        C839   1.414       .  A
C839        C840   1.400       .  A
C839        S843   1.804       .  S
C840        H844   1.084       .  S
S841        H846   1.407       .  S
S843        H847   1.406       .  S
C849        C850   1.402       .  A
C849        C854   1.402       .  A
C849        H859   1.084       .  S
C850        C855   1.487       .  S
C850        C851   1.412       .  A
C851        C852   1.402       .  A
C851        S856   1.804       .  S
C852        C853   1.407       .  A
C852        H857   1.084       .  S
C853        C854   1.420       .  A
C854        S858   1.803       .  S
C855        C860   1.412       .  A
C855        C864   1.402       .  A
S856        H872   1.406       .  S
S858        H869   1.408       .  S
C860        C861   1.409       .  A
C860        S865   1.805       .  S
C861        C862   1.405       .  A
C861        H866   1.083       .  S
C862        C863   1.414       .  A
C863        C864   1.397       .  A
C863        S867   1.805       .  S
C864        H868   1.084       .  S
S865        H870   1.407       .  S
S867        H871   1.407       .  S
C873        C874   1.400       .  A
C873        C878   1.397       .  A
C873        H883   1.084       .  S
C874        C879   1.478       .  S
C874        C875   1.410       .  A
C875        C876   1.401       .  A
C875        S880   1.803       .  S
C876        C877   1.406       .  A
C876        H881   1.084       .  S
C877        C878   1.418       .  A
C878        S882   1.805       .  S
C879        C884   1.409       .  A
C879        C888   1.399       .  A
S880        H896   1.406       .  S
S882        H893   1.408       .  S
C884        C885   1.406       .  A
C884        S889   1.805       .  S
C885        C886   1.405       .  A
C885        H890   1.083       .  S
C886        C887   1.416       .  A
C887        C888   1.395       .  A
C887        S891   1.805       .  S
C888        H892   1.084       .  S
S889        H894   1.407       .  S
S891        H895   1.407       .  S
C897        C898   1.400       .  A
C897        C902   1.396       .  A
C897        H907   1.084       .  S
C898        C903   1.479       .  S
C898        C899   1.411       .  A
C899        C900   1.403       .  A
C899        S904   1.803       .  S
C900        C901   1.407       .  A
C900        H905   1.084       .  S
C901        C902   1.417       .  A
C902        S906   1.805       .  S
C903        C908   1.410       .  A
C903        C912   1.400       .  A
S904        H920   1.406       .  S
S906        H917   1.407       .  S
C908        C909   1.406       .  A
C908        S913   1.805       .  S
C909        C910   1.403       .  A
C909        H914   1.083       .  S
C910        C911   1.411       .  A
C911        C912   1.397       .  A
C911        S915   1.802       .  S
C912        H916   1.084       .  S
S913        H918   1.407       .  S
S915        H919   1.406       .  S
C921        C922   1.401       .  A
C921        C926   1.398       .  A
C921        H931   1.084       .  S
C922        C927   1.483       .  S
C922        C923   1.414       .  A
C923        C924   1.405       .  A
C923        S928   1.803       .  S
C924        C925   1.404       .  A
C924        H929   1.084       .  S
C925        C926   1.414       .  A
C926        S930   1.805   1_655  S
C927        C932   1.408       .  A
C927        C936   1.403       .  A
S928        H944   1.405       .  S
S930        H941   1.407   1_455  S
C932        C933   1.401       .  A
C932        S937   1.808   1_655  S
C933        C934   1.406       .  A
C933        H938   1.083   1_655  S
C934        C935   1.416       .  A
C935        C936   1.405       .  A
C935        S939   1.802       .  S
C936        H940   1.083       .  S
S937        H942   1.407       .  S
S939        H943   1.407       .  S
C945        C946   1.405       .  A
C945        C950   1.404       .  A
C945        H955   1.084       .  S
C946        C951   1.483       .  S
C946        C947   1.412       .  A
C947        C948   1.398       .  A
C947        S952   1.805       .  S
C948        C949   1.404       .  A
C948        H953   1.084       .  S
C949        C950   1.414       .  A
C950        S954   1.802       .  S
C951        C956   1.409       .  A
C951        C960   1.403       .  A
S952        H968   1.405   1_545  S
S954        H965   1.406       .  S
C956        C957   1.401       .  A
C956        S961   1.808   1_545  S
C957        C958   1.405       .  A
C957        H962   1.083       .  S
C958        C959   1.416       .  A
C959        C960   1.405       .  A
C959        S963   1.802       .  S
C960        H964   1.084       .  S
S961        H966   1.407       .  S
S963        H967   1.407       .  S
C969        C970   1.404       .  A
C969        C974   1.403       .  A
C969        H979   1.084       .  S
C970        C975   1.483       .  S
C970        C971   1.412       .  A
C971        C972   1.397       .  A
C971        S976   1.805       .  S
C972        C973   1.405       .  A
C972        H977   1.084       .  S
C973        C974   1.417       .  A
C974        S978   1.803       .  S
C975        C980   1.409       .  A
C975        C984   1.403       .  A
S976        H992   1.406       .  S
S978        H989   1.407       .  S
C980        C981   1.403       .  A
C980        S985   1.807       .  S
C981        C982   1.408       .  A
C981        H986   1.082       .  S
C982        C983   1.417       .  A
C983        C984   1.401       .  A
C983        S987   1.803       .  S
C984        H988   1.084       .  S
S985        H990   1.407       .  S
S987        H991   1.407       .  S
C993        C994   1.403       .  A
C993        C998   1.400       .  A
C993       H1003   1.084       .  S
C994        C999   1.484       .  S
C994        C995   1.411       .  A
C995        C996   1.401       .  A
C995       S1000   1.803       .  S
C996        C997   1.406       .  A
C996       H1001   1.084       .  S
C997        C998   1.416       .  A
C998       S1002   1.803       .  S
C999       C1004   1.411       .  A
C999       C1008   1.402       .  A
S1000      H1016   1.406       .  S
S1002      H1013   1.407       .  S
C1004      C1005   1.408       .  A
C1004      S1009   1.805       .  S
C1005      C1006   1.404       .  A
C1005      H1010   1.083       .  S
C1006      C1007   1.412       .  A
C1007      C1008   1.397       .  A
C1007      S1011   1.805       .  S
C1008      H1012   1.084       .  S
S1009      H1014   1.407       .  S
S1011      H1015   1.407       .  S
C1017      C1018   1.404       .  A
C1017      C1022   1.406       .  A
C1017      H1027   1.084       .  S
C1018      C1023   1.480       .  S
C1018      C1019   1.410       .  A
C1019      C1020   1.394       .  A
C1019      S1024   1.806       .  S
C1020      C1021   1.405       .  A
C1020      H1025   1.084       .  S
C1021      C1022   1.417       .  A
C1022      S1026   1.802       .  S
C1023      C1028   1.408       .  A
C1023      C1032   1.403       .  A
S1024      H1040   1.405       .  S
S1026      H1037   1.407       .  S
C1028      C1029   1.399       .  A
C1028      S1033   1.808       .  S
C1029      C1030   1.405       .  A
C1029      H1034   1.083       .  S
C1030      C1031   1.417       .  A
C1031      C1032   1.404       .  A
C1031      S1035   1.802       .  S
C1032      H1036   1.084       .  S
S1033      H1038   1.407       .  S
S1035      H1039   1.407       .  S
C1041      C1042   1.404       .  A
C1041      C1046   1.404       .  A
C1041      H1051   1.084       .  S
C1042      C1047   1.487       .  S
C1042      C1043   1.413       .  A
C1043      C1044   1.400       .  A
C1043      S1048   1.805       .  S
C1044      C1045   1.406       .  A
C1044      H1049   1.084       .  S
C1045      C1046   1.416       .  A
C1046      S1050   1.803       .  S
C1047      C1052   1.410       .  A
C1047      C1056   1.405       .  A
S1048      H1064   1.406       .  S
S1050      H1061   1.407       .  S
C1052      C1053   1.403       .  A
C1052      S1057   1.807       .  S
C1053      C1054   1.405       .  A
C1053      H1058   1.083       .  S
C1054      C1055   1.414       .  A
C1055      C1056   1.404       .  A
C1055      S1059   1.802       .  S
C1056      H1060   1.084       .  S
S1057      H1062   1.407       .  S
S1059      H1063   1.407       .  S
C1065      C1066   1.404       .  A
C1065      C1070   1.403       .  A
C1065      H1075   1.084       .  S
C1066      C1071   1.485       .  S
C1066      C1067   1.412       .  A
C1067      C1068   1.399       .  A
C1067      S1072   1.805       .  S
C1068      C1069   1.406       .  A
C1068      H1073   1.084       .  S
C1069      C1070   1.417       .  A
C1070      S1074   1.803       .  S
C1071      C1076   1.409       .  A
C1071      C1080   1.402       .  A
S1072      H1088   1.406       .  S
S1074      H1085   1.407       .  S
C1076      C1077   1.404       .  A
C1076      S1081   1.807       .  S
C1077      C1078   1.408       .  A
C1077      H1082   1.082       .  S
C1078      C1079   1.417       .  A
C1079      C1080   1.402       .  A
C1079      S1083   1.802       .  S
C1080      H1084   1.084       .  S
S1081      H1086   1.407       .  S
S1083      H1087   1.407       .  S
C1089      C1090   1.401       .  A
C1089      C1094   1.398       .  A
C1089      H1099   1.084       .  S
C1090      C1095   1.483       .  S
C1090      C1091   1.412       .  A
C1091      C1092   1.403       .  A
C1091      S1096   1.803       .  S
C1092      C1093   1.406       .  A
C1092      H1097   1.084       .  S
C1093      C1094   1.418       .  A
C1094      S1098   1.805   1_565  S
C1095      C1100   1.409       .  A
C1095      C1104   1.400       .  A
S1096      H1112   1.406       .  S
S1098      H1109   1.408       .  S
C1100      C1101   1.406       .  A
C1100      S1105   1.806       .  S
C1101      C1102   1.408       .  A
C1101      H1106   1.082       .  S
C1102      C1103   1.420       .  A
C1103      C1104   1.398       .  A
C1103      S1107   1.804   1_565  S
C1104      H1108   1.084       .  S
S1105      H1110   1.407       .  S
S1107      H1111   1.408       .  S
C1113      C1114   1.401       .  A
C1113      C1118   1.401       .  A
C1113      H1123   1.083       .  S
C1114      C1119   1.478       .  S
C1114      C1115   1.411       .  A
C1115      C1116   1.402       .  A
C1115      S1120   1.803       .  S
C1116      C1117   1.405       .  A
C1116      H1121   1.084       .  S
C1117      C1118   1.415       .  A
C1118      S1122   1.810       .  S
C1119      C1124   1.409       .  A
C1119      C1128   1.400       .  A
S1120      H1136   1.405       .  S
S1122      H1133   1.407       .  S
C1124      C1125   1.406       .  A
C1124      S1129   1.805       .  S
C1125      C1126   1.405       .  A
C1125      H1130   1.083       .  S
C1126      C1127   1.415       .  A
C1127      C1128   1.397       .  A
C1127      S1131   1.805       .  S
C1128      H1132   1.084       .  S
S1129      H1134   1.407       .  S
S1131      H1135   1.407       .  S
C1137      C1138   1.400       .  A
C1137      C1142   1.397       .  A
C1137      H1147   1.084       .  S
C1138      C1143   1.477       .  S
C1138      C1139   1.411       .  A
C1139      C1140   1.401       .  A
C1139      S1144   1.804       .  S
C1140      C1141   1.405       .  A
C1140      H1145   1.084       .  S
C1141      C1142   1.417       .  A
C1142      S1146   1.805       .  S
C1143      C1148   1.407       .  A
C1143      C1152   1.399       .  A
S1144      H1160   1.406       .  S
S1146      H1157   1.408       .  S
C1148      C1149   1.403       .  A
C1148      S1153   1.806       .  S
C1149      C1150   1.407       .  A
C1149      H1154   1.082       .  S
C1150      C1151   1.419       .  A
C1151      C1152   1.397       .  A
C1151      S1155   1.804       .  S
C1152      H1156   1.084       .  S
S1153      H1158   1.407       .  S
S1155      H1159   1.408       .  S
C1161      C1162   1.404       .  A
C1161      C1166   1.405       .  A
C1161      H1171   1.084       .  S
C1162      C1167   1.483       .  S
C1162      C1163   1.410       .  A
C1163      C1164   1.397       .  A
C1163      S1168   1.805       .  S
C1164      C1165   1.407       .  A
C1164      H1169   1.084       .  S
C1165      C1166   1.417       .  A
C1166      S1170   1.801       .  S
C1167      C1172   1.408       .  A
C1167      C1176   1.402       .  A
S1168      H1184   1.405       .  S
S1170      H1181   1.407       .  S
C1172      C1173   1.403       .  A
C1172      S1177   1.807       .  S
C1173      C1174   1.409       .  A
C1173      H1178   1.082       .  S
C1174      C1175   1.419       .  A
C1175      C1176   1.402       .  A
C1175      S1179   1.802       .  S
C1176      H1180   1.084       .  S
S1177      H1182   1.407       .  S
S1179      H1183   1.407       .  S
C1185      C1186   1.404       .  A
C1185      C1190   1.406       .  A
C1185      H1195   1.084       .  S
C1186      C1191   1.481       .  S
C1186      C1187   1.410       .  A
C1187      C1188   1.394       .  A
C1187      S1192   1.805       .  S
C1188      C1189   1.405       .  A
C1188      H1193   1.084       .  S
C1189      C1190   1.416       .  A
C1190      S1194   1.801       .  S
C1191      C1196   1.408       .  A
C1191      C1200   1.403       .  A
S1192      H1208   1.404       .  S
S1194      H1205   1.407       .  S
C1196      C1197   1.400       .  A
C1196      S1201   1.808       .  S
C1197      C1198   1.405       .  A
C1197      H1202   1.083       .  S
C1198      C1199   1.416       .  A
C1199      C1200   1.405       .  A
C1199      S1203   1.802       .  S
C1200      H1204   1.084       .  S
S1201      H1206   1.406       .  S
S1203      H1207   1.407       .  S
C1209      C1210   1.401       .  A
C1209      C1214   1.396       .  A
C1209      H1219   1.084       .  S
C1210      C1215   1.487       .  S
C1210      C1211   1.415       .  A
C1211      C1212   1.406       .  A
C1211      S1216   1.803       .  S
C1212      C1213   1.405       .  A
C1212      H1217   1.084       .  S
C1213      C1214   1.416       .  A
C1214      S1218   1.806       .  S
C1215      C1220   1.410       .  A
C1215      C1224   1.400       .  A
S1216      H1232   1.406       .  S
S1218      H1229   1.407       .  S
C1220      C1221   1.406       .  A
C1220      S1225   1.807       .  S
C1221      C1222   1.409       .  A
C1221      H1226   1.082       .  S
C1222      C1223   1.423       .  A
C1223      C1224   1.400       .  A
C1223      S1227   1.803       .  S
C1224      H1228   1.084       .  S
S1225      H1230   1.407       .  S
S1227      H1231   1.408       .  S
C1233      C1234   1.404       .  A
C1233      C1238   1.402       .  A
C1233      H1243   1.084       .  S
C1234      C1239   1.483       .  S
C1234      C1235   1.412       .  A
C1235      C1236   1.398       .  A
C1235      S1240   1.805       .  S
C1236      C1237   1.405       .  A
C1236      H1241   1.084       .  S
C1237      C1238   1.414       .  A
C1238      S1242   1.803       .  S
C1239      C1244   1.409       .  A
C1239      C1248   1.402       .  A
S1240      H1256   1.406       .  S
S1242      H1253   1.407       .  S
C1244      C1245   1.403       .  A
C1244      S1249   1.807       .  S
C1245      C1246   1.407       .  A
C1245      H1250   1.082       .  S
C1246      C1247   1.418       .  A
C1247      C1248   1.401       .  A
C1247      S1251   1.803       .  S
C1248      H1252   1.084       .  S
S1249      H1254   1.407       .  S
S1251      H1255   1.407       .  S
C1257      C1258   1.403       .  A
C1257      C1262   1.400       .  A
C1257      H1267   1.084       .  S
C1258      C1263   1.479       .  S
C1258      C1259   1.411       .  A
C1259      C1260   1.396       .  A
C1259      S1264   1.805       .  S
C1260      C1261   1.406       .  A
C1260      H1265   1.084       .  S
C1261      C1262   1.415       .  A
C1262      S1266   1.802       .  S
C1263      C1268   1.410       .  A
C1263      C1272   1.402       .  A
S1264      H1280   1.406       .  S
S1266      H1277   1.407       .  S
C1268      C1269   1.401       .  A
C1268      S1273   1.808       .  S
C1269      C1270   1.405       .  A
C1269      H1274   1.083       .  S
C1270      C1271   1.416       .  A
C1271      C1272   1.399       .  A
C1271      S1275   1.803       .  S
C1272      H1276   1.084       .  S
S1273      H1278   1.407       .  S
S1275      H1279   1.407       .  S
C1281      C1282   1.399       .  A
C1281      C1286   1.397       .  A
C1281      H1291   1.085       .  S
C1282      C1287   1.479       .  S
C1282      C1283   1.412       .  A
C1283      C1284   1.403       .  A
C1283      S1288   1.803       .  S
C1284      C1285   1.405       .  A
C1284      H1289   1.084       .  S
C1285      C1286   1.418       .  A
C1286      S1290   1.805       .  S
C1287      C1292   1.408       .  A
C1287      C1296   1.401       .  A
S1288      H1304   1.405       .  S
S1290      H1301   1.407       .  S
C1292      C1293   1.405       .  A
C1292      S1297   1.805       .  S
C1293      C1294   1.405       .  A
C1293      H1298   1.083       .  S
C1294      C1295   1.414       .  A
C1295      C1296   1.399       .  A
C1295      S1299   1.804       .  S
C1296      H1300   1.084       .  S
S1297      H1302   1.407       .  S
S1299      H1303   1.407       .  S
C1305      C1306   1.404       .  A
C1305      C1310   1.404       .  A
C1305      H1315   1.084       .  S
C1306      C1311   1.489       .  S
C1306      C1307   1.412       .  A
C1307      C1308   1.401       .  A
C1307      S1312   1.804       .  S
C1308      C1309   1.408       .  A
C1308      H1313   1.083       .  S
C1309      C1310   1.418       .  A
C1310      S1314   1.803       .  S
C1311      C1316   1.411       .  A
C1311      C1320   1.405       .  A
S1312      H1328   1.406       .  S
S1314      H1325   1.407       .  S
C1316      C1317   1.404       .  A
C1316      S1321   1.808       .  S
C1317      C1318   1.406       .  A
C1317      H1322   1.083       .  S
C1318      C1319   1.416       .  A
C1319      C1320   1.404       .  A
C1319      S1323   1.803       .  S
C1320      H1324   1.084       .  S
S1321      H1326   1.407       .  S
S1323      H1327   1.407       .  S
C1329      C1330   1.402       .  A
C1329      C1334   1.401       .  A
C1329      H1339   1.085       .  S
C1330      C1335   1.480       .  S
C1330      C1331   1.413       .  A
C1331      C1332   1.401       .  A
C1331      S1336   1.807       .  S
C1332      C1333   1.407       .  A
C1332      H1337   1.085       .  S
C1333      C1334   1.416       .  A
C1334      S1338   1.802       .  S
C1335      C1340   1.409       .  A
C1335      C1344   1.398       .  A
S1336      H1352   1.404       .  S
S1338      H1349   1.407       .  S
C1340      C1341   1.409       .  A
C1340      S1345   1.804       .  S
C1341      C1342   1.407       .  A
C1341      H1346   1.082       .  S
C1342      C1343   1.417       .  A
C1343      C1344   1.395       .  A
C1343      S1347   1.801   1_455  S
C1344      H1348   1.084       .  S
S1345      H1350   1.407       .  S
S1347      H1351   1.407       .  S
C1353      C1354   1.401       .  A
C1353      C1358   1.396       .  A
C1353      H1363   1.084       .  S
C1354      C1359   1.479       .  S
C1354      C1355   1.412       .  A
C1355      C1356   1.402       .  A
C1355      S1360   1.803       .  S
C1356      C1357   1.405       .  A
C1356      H1361   1.084       .  S
C1357      C1358   1.415       .  A
C1358      S1362   1.805       .  S
C1359      C1364   1.410       .  A
C1359      C1368   1.401       .  A
S1360      H1376   1.406       .  S
S1362      H1373   1.407       .  S
C1364      C1365   1.404       .  A
C1364      S1369   1.805       .  S
C1365      C1366   1.403       .  A
C1365      H1370   1.083       .  S
C1366      C1367   1.412       .  A
C1367      C1368   1.397       .  A
C1367      S1371   1.802       .  S
C1368      H1372   1.084       .  S
S1369      H1374   1.407       .  S
S1371      H1375   1.406       .  S
C1377      C1378   1.404       .  A
C1377      C1382   1.406       .  A
C1377      H1387   1.084       .  S
C1378      C1383   1.480       .  S
C1378      C1379   1.410       .  A
C1379      C1380   1.395       .  A
C1379      S1384   1.805   1_554  S
C1380      C1381   1.405       .  A
C1380      H1385   1.084       .  S
C1381      C1382   1.417       .  A
C1382      S1386   1.801       .  S
C1383      C1388   1.408       .  A
C1383      C1392   1.403       .  A
S1384      H1400   1.404   1_556  S
S1386      H1397   1.407       .  S
C1388      C1389   1.399       .  A
C1388      S1393   1.808       .  S
C1389      C1390   1.404       .  A
C1389      H1394   1.083       .  S
C1390      C1391   1.415       .  A
C1391      C1392   1.405       .  A
C1391      S1395   1.802       .  S
C1392      H1396   1.084       .  S
S1393      H1398   1.407   1_554  S
S1395      H1399   1.407       .  S
C1401      C1402   1.401       .  A
C1401      C1406   1.401       .  A
C1401      H1411   1.084       .  S
C1402      C1407   1.485       .  S
C1402      C1403   1.411       .  A
C1403      C1404   1.403       .  A
C1403      S1408   1.803       .  S
C1404      C1405   1.407       .  A
C1404      H1409   1.084       .  S
C1405      C1406   1.420       .  A
C1406      S1410   1.804   1_556  S
C1407      C1412   1.410       .  A
C1407      C1416   1.400       .  A
S1408      H1424   1.406       .  S
S1410      H1421   1.408       .  S
C1412      C1413   1.409       .  A
C1412      S1417   1.805       .  S
C1413      C1414   1.406       .  A
C1413      H1418   1.083       .  S
C1414      C1415   1.416       .  A
C1415      C1416   1.398       .  A
C1415      S1419   1.803   1_556  S
C1416      H1420   1.084       .  S
S1417      H1422   1.407       .  S
S1419      H1423   1.407       .  S
C1425      C1426   1.404       .  A
C1425      C1430   1.405       .  A
C1425      H1435   1.084       .  S
C1426      C1431   1.484       .  S
C1426      C1427   1.411       .  A
C1427      C1428   1.399       .  A
C1427      S1432   1.804       .  S
C1428      C1429   1.407       .  A
C1428      H1433   1.084       .  S
C1429      C1430   1.418       .  A
C1430      S1434   1.802       .  S
C1431      C1436   1.410       .  A
C1431      C1440   1.398       .  A
S1432      H1448   1.404       .  S
S1434      H1445   1.407       .  S
C1436      C1437   1.411       .  A
C1436      S1441   1.804       .  S
C1437      C1438   1.409       .  A
C1437      H1442   1.082       .  S
C1438      C1439   1.420       .  A
C1439      C1440   1.396       .  A
C1439      S1443   1.805   1_455  S
C1440      H1444   1.084   1_455  S
S1441      H1446   1.407       .  S
S1443      H1447   1.408       .  S
C1449      C1450   1.404       .  A
C1449      C1454   1.403       .  A
C1449      H1459   1.084       .  S
C1450      C1455   1.486       .  S
C1450      C1451   1.413       .  A
C1451      C1452   1.400       .  A
C1451      S1456   1.805   1_565  S
C1452      C1453   1.407       .  A
C1452      H1457   1.084       .  S
C1453      C1454   1.416       .  A
C1454      S1458   1.803       .  S
C1455      C1460   1.410       .  A
C1455      C1464   1.404       .  A
S1456      H1472   1.406       .  S
S1458      H1469   1.407       .  S
C1460      C1461   1.403       .  A
C1460      S1465   1.808       .  S
C1461      C1462   1.407       .  A
C1461      H1466   1.082       .  S
C1462      C1463   1.417       .  A
C1463      C1464   1.403       .  A
C1463      S1467   1.803       .  S
C1464      H1468   1.084       .  S
S1465      H1470   1.407   1_565  S
S1467      H1471   1.407       .  S
C1473      C1474   1.403       .  A
C1473      C1478   1.405       .  A
C1473      H1483   1.084       .  S
C1474      C1479   1.480       .  S
C1474      C1475   1.411       .  A
C1475      C1476   1.395       .  A
C1475      S1480   1.806   1_545  S
C1476      C1477   1.405       .  A
C1476      H1481   1.084   1_545  S
C1477      C1478   1.416       .  A
C1478      S1482   1.801       .  S
C1479      C1484   1.408       .  A
C1479      C1488   1.403       .  A
S1480      H1496   1.405   1_565  S
S1482      H1493   1.407       .  S
C1484      C1485   1.399       .  A
C1484      S1489   1.808   1_545  S
C1485      C1486   1.405       .  A
C1485      H1490   1.083       .  S
C1486      C1487   1.415       .  A
C1487      C1488   1.404       .  A
C1487      S1491   1.802       .  S
C1488      H1492   1.083       .  S
S1489      H1494   1.407       .  S
S1491      H1495   1.407       .  S
C1497      C1498   1.400       .  A
C1497      C1502   1.405       .  A
C1497      H1507   1.083       .  S
C1498      C1503   1.482       .  S
C1498      C1499   1.410       .  A
C1499      C1500   1.398       .  A
C1499      S1504   1.805       .  S
C1500      C1501   1.409       .  A
C1500      H1505   1.084       .  S
C1501      C1502   1.423       .  A
C1502      S1506   1.809       .  S
C1503      C1508   1.411       .  A
C1503      C1512   1.404       .  A
S1504      H1520   1.406       .  S
S1506      H1517   1.406       .  S
C1508      C1509   1.400       .  A
C1508      S1513   1.809   1_655  S
C1509      C1510   1.403       .  A
C1509      H1514   1.084   1_655  S
C1510      C1511   1.412       .  A
C1511      C1512   1.402       .  A
C1511      S1515   1.803       .  S
C1512      H1516   1.084       .  S
S1513      H1518   1.407       .  S
S1515      H1519   1.406       .  S
