geometry optimzed in LAMMPS
_audit_creation_date              2020-11-30 
_audit_creation_method            'lammps2cif' 
_symmetry_space_group_name_H-M    'P1' 
_symmetry_Int_Tables_number       1 
_symmetry_cell_setting            triclinic 
loop_ 
_symmetry_equiv_pos_as_xyz 
  x,y,z 
_cell_length_a                    25.403440154661812 
_cell_length_b                    26.07401576766171 
_cell_length_c                    23.517726291258395 
_cell_angle_alpha                 89.55944858073683 
_cell_angle_beta                  87.34270631300869 
_cell_angle_gamma                 120.56418884589915 
loop_ 
_atom_site_label 
_atom_site_type_symbol 
_atom_site_fract_x 
_atom_site_fract_y 
_atom_site_fract_z 
_atom_site_charge 
C1          C  0.13184425  0.23393141  0.38964016    -0.03650
C2          C  0.21881185  0.11131039  0.13159757    -0.03650
C3          C  0.11652053  0.22236054  0.12507139    -0.03650
C4          C  0.23812768  0.12237703  0.37842521    -0.03650
O5          O  0.05189769  0.12390136  0.09526307    -0.89340
C6          C  0.18969953  0.28072983  0.41323758     1.10700
O7          O  0.04486616  0.06811927  0.00259019    -1.37150
O8          O  0.16692281  0.29718540  0.04822346    -0.90820
O9          O  0.14303166  0.17069676  0.05823645    -0.91490
O10         O  0.08991811  0.05059307  0.12766307    -0.80310
O11         O  0.26654473  0.07957387  0.05535571    -1.02400
C12         C  0.25762667  0.18264548  0.10377236     1.20750
O13         O  0.03032055  0.30042243  0.00246772    -1.37290
Mn14       Mn  0.01093889  0.00905592  0.43401422     1.82060
O15         O  0.28764338  0.23841186  0.12314126    -0.79380
O16         O  0.21977004  0.26673764  0.08673660    -0.88780
C17         C  0.25957680  0.19266229  0.40298460     1.11830
C18         C  0.17371204  0.27109484  0.09051034     1.06560
O19         O  0.10899439  0.05252765  0.38079272    -0.80320
O20         O  0.27597959  0.31463719  0.99931079    -1.34020
O21         O  0.15731095  0.06238447  0.45421919    -0.99530
C22         C  0.06734095  0.23350979  0.10002471     1.05270
Mn23       Mn  0.22391328  0.22340041  0.01170017     1.48570
O24         O  0.07706580  0.28548428  0.09763992    -0.88730
Mn25       Mn  0.14539363  0.11638566  0.99734142     1.49560
O26         O  0.09449318  0.17502165  0.47579519    -0.92610
C27         C  0.25520019  0.07412557  0.10595116     1.18460
C28         C  0.11420263  0.17912300  0.42504620     1.10520
Mn29       Mn  0.00001483  0.00191191  0.07128473     1.80970
O30         O  0.25203938  0.19046732  0.45333944    -0.97790
Mn31       Mn  0.01262895  0.12399177  0.01794263     1.49260
C32         C  0.10546722  0.16578682  0.09760182     1.07040
Mn33       Mn  0.98377469  0.20183060  0.99566754     1.49930
C34         C  0.08683467  0.24975323  0.41809052     1.09950
O35         O  0.14871680  0.07149894  0.05640999    -1.03560
O36         O  0.21648013  0.27544563  0.45430327    -0.93230
C37         C  0.14775490  0.07659305  0.10653885     1.21230
O38         O  0.25490336  0.18303458  0.05365077    -1.03950
O39         O  0.19698666  0.33019638  0.41254025    -0.91350
O40         O  0.03291254  0.21434362  0.41449676    -0.90960
O41         O  0.14501523  0.15664294  0.41933368    -0.90980
Mn42       Mn  0.22859234  0.03213209  0.99334951     1.47860
O43         O  0.29230662  0.24964166  0.38332282    -0.79450
C44         C  0.16324350  0.07269637  0.40337771     1.14280
O45         O  0.27787647  0.04211392  0.12714771    -0.78190
O46         O  0.30865068  0.06628918  0.38188000    -0.77800
Mn47       Mn  0.12000831  0.00124033  0.01737864     1.51060
O48         O  0.04034215  0.20259875  0.05796071    -0.90150
O49         O  0.29081534  0.10366026  0.45394902    -0.97680
O50         O  0.09603581  0.26527386  0.46915749    -0.92690
C51         C  0.28716994  0.10024992  0.40295446     1.12070
C52         C  0.20178773  0.06482475  0.28940255    -0.10310
C53         C  0.23784949  0.11985727  0.31421615     0.05880
C54         C  0.25948595  0.17062407  0.27912369    -0.04080
C55         C  0.24002421  0.16646149  0.22517820    -0.08530
C56         C  0.21544615  0.11296214  0.19682409     0.05000
C57         C  0.19012966  0.06187145  0.23192045    -0.03560
Br58       Br  0.11768262  0.99695286  0.21312868    -0.03250
H59         H  0.17801965  0.02428874  0.31536687     0.08910
H60         H  0.24747419  0.20704766  0.20719174     0.06930
Br61       Br  0.33684295  0.23800575  0.28421475    -0.03680
C62         C  0.17869061  0.25752430  0.21927248    -0.10310
C63         C  0.12327795  0.21907262  0.19360251     0.05880
C64         C  0.07799798  0.17762939  0.23478637    -0.04080
C65         C  0.08324890  0.18255206  0.29506811    -0.08530
C66         C  0.13402786  0.22776933  0.32082117     0.05000
C67         C  0.18442720  0.26197691  0.27973631    -0.03560
Br68       Br  0.26545634  0.31471262  0.29811564    -0.03250
H69         H  0.21857534  0.28664991  0.19224228     0.08910
H70         H  0.04541160  0.15091370  0.32246374     0.06930
Br71       Br  0.34204681  0.10835810  0.21584621    -0.03680
C72         C  0.13184816  0.23392636  0.88963999    -0.03650
C73         C  0.21880866  0.11131609  0.63159810    -0.03650
C74         C  0.11651714  0.22236501  0.62507169    -0.03650
C75         C  0.23813182  0.12237228  0.87842490    -0.03650
O76         O  0.05189409  0.12390655  0.59526237    -0.89340
C77         C  0.18970348  0.28072481  0.91323730     1.10700
O78         O  0.04486222  0.06812467  0.50259038    -1.37150
O79         O  0.16691876  0.29719065  0.54822408    -0.90820
O80         O  0.14302806  0.17070234  0.55823572    -0.91490
O81         O  0.08991433  0.05059855  0.62766405    -0.80310
O82         O  0.26654080  0.07957975  0.55535563    -1.02400
C83         C  0.25762273  0.18265122  0.60377308     1.20750
O84         O  0.03031661  0.30042779  0.50246830    -1.37290
Mn85       Mn  0.01094265  0.00905066  0.93401395     1.82060
O86         O  0.28763899  0.23841763  0.62314186    -0.79380
O87         O  0.21976656  0.26674333  0.58673643    -0.88780
C88         C  0.25958055  0.19265716  0.90298479     1.11830
C89         C  0.17370831  0.27109997  0.59051065     1.06560
O90         O  0.10899828  0.05252253  0.88079228    -0.80320
O91         O  0.27597583  0.31464271  0.49931111    -1.34020
O92         O  0.15731502  0.06237935  0.95421861    -0.99530
C93         C  0.06733707  0.23351462  0.60002572     1.05270
Mn94       Mn  0.22390984  0.22340598  0.51170030     1.48570
O95         O  0.07706205  0.28548924  0.59764090    -0.88730
Mn96       Mn  0.14538970  0.11639094  0.49734159     1.49560
O97         O  0.09449738  0.17501665  0.97579532    -0.92610
C98         C  0.25519656  0.07413144  0.60595103     1.18460
C99         C  0.11420666  0.17911794  0.92504620     1.10520
Mn100      Mn  0.00001096  0.00191754  0.57128516     1.80970
O101        O  0.25204329  0.19046199  0.95333953    -0.97790
Mn102      Mn  0.01262498  0.12399724  0.51794249     1.49260
C103        C  0.10546364  0.16579200  0.59760110     1.07040
Mn104      Mn  0.98377067  0.20183596  0.49566808     1.49930
C105        C  0.08683855  0.24974795  0.91809020     1.09950
O106        O  0.14871265  0.07150443  0.55641077    -1.03560
O107        O  0.21648419  0.27544068  0.95430302    -0.93230
C108        C  0.14775115  0.07659874  0.60653973     1.21230
O109        O  0.25489946  0.18304014  0.55365143    -1.03950
O110        O  0.19699065  0.33019137  0.91253972    -0.91350
O111        O  0.03291647  0.21433832  0.91449623    -0.90960
O112        O  0.14501913  0.15663777  0.91933358    -0.90980
Mn113      Mn  0.22858825  0.03213734  0.49334986     1.47860
O114        O  0.29230954  0.24963653  0.88332304    -0.79450
C115        C  0.16324751  0.07269133  0.90337715     1.14280
O116        O  0.27787254  0.04211963  0.62714751    -0.78190
O117        O  0.30865437  0.06628379  0.88187963    -0.77800
Mn118      Mn  0.12000429  0.00124559  0.51737940     1.51060
O119        O  0.04033793  0.20260383  0.55796162    -0.90150
O120        O  0.29081956  0.10365510  0.95394875    -0.97680
O121        O  0.09603949  0.26526857  0.96915709    -0.92690
C122        C  0.28717404  0.10024486  0.90295410     1.12070
C123        C  0.20179016  0.06482407  0.78940030    -0.10310
C124        C  0.23785459  0.11985488  0.81421562     0.05880
C125        C  0.25949363  0.17062357  0.77912514    -0.04080
C126        C  0.24003075  0.16646519  0.72518058    -0.08530
C127        C  0.21544583  0.11296648  0.69682478     0.05000
C128        C  0.19012938  0.06187424  0.73191908    -0.03560
Br129      Br  0.11768231  0.99695654  0.71312619    -0.03250
H130        H  0.17802215  0.02428694  0.81536314     0.08910
H131        H  0.24748568  0.20705413  0.70719656     0.06930
Br132      Br  0.33685192  0.23800350  0.78421832    -0.03680
C133        C  0.17868980  0.25752633  0.71927175    -0.10310
C134        C  0.12327652  0.21907460  0.69360247     0.05880
C135        C  0.07799962  0.17762712  0.73478617    -0.04080
C136        C  0.08325291  0.18254689  0.79506790    -0.08530
C137        C  0.13403102  0.22776526  0.82082086     0.05000
C138        C  0.18442865  0.26197572  0.77973544    -0.03560
Br139      Br  0.26545907  0.31470764  0.79811406    -0.03250
H140        H  0.21857347  0.28665399  0.69224134     0.08910
H141        H  0.04541768  0.15090585  0.82246373     0.06930
Br142      Br  0.34204901  0.10835459  0.71584651    -0.03680
C143        C  0.13183836  0.56726460  0.38963964    -0.03650
C144        C  0.21880719  0.44464382  0.13159748    -0.03650
C145        C  0.11651638  0.55569428  0.12507115    -0.03650
C146        C  0.23812297  0.45571082  0.37842491    -0.03650
O147        O  0.05189263  0.45723496  0.09526304    -0.89340
C148        C  0.18969356  0.61406083  0.41323887     1.10700
O149        O  0.04486076  0.40145255  0.00258997    -1.37150
O150        O  0.16692179  0.63051924  0.04822388    -0.90820
O151        O  0.14302589  0.50403075  0.05823463    -0.91490
O152        O  0.08991345  0.38392647  0.12766291    -0.80310
O153        O  0.26653937  0.41290702  0.05535583    -1.02400
C154        C  0.25762442  0.51597936  0.10377306     1.20750
O155        O  0.03032049  0.63375584  0.00246749    -1.37290
Mn156      Mn  0.01093512  0.34238945  0.43401391     1.82060
O157        O  0.28764278  0.57174549  0.12314252    -0.79380
O158        O  0.21976634  0.60006949  0.08673903    -0.88780
C159        C  0.25957218  0.52599574  0.40298478     1.11830
C160        C  0.17370923  0.60442824  0.09051144     1.06560
O161        O  0.10899013  0.38586118  0.38079236    -0.80320
O162        O  0.27598051  0.64797018  0.99931199    -1.34020
O163        O  0.15730599  0.39571800  0.45421910    -0.99530
C164        C  0.06733810  0.56684428  0.10002363     1.05270
Mn165      Mn  0.22391019  0.55673359  0.01170183     1.48570
O166        O  0.07706388  0.61881893  0.09763884    -0.88730
Mn167      Mn  0.14538789  0.44971926  0.99734052     1.49560
O168        O  0.09448612  0.50835416  0.47579380    -0.92610
C169        C  0.25519506  0.40745854  0.10595123     1.18460
C170        C  0.11419531  0.51245516  0.42504474     1.10520
Mn171      Mn  0.00001042  0.33524501  0.07128442     1.80970
O172        O  0.25203463  0.52380040  0.45333975    -0.97790
Mn173      Mn  0.01262306  0.45732483  0.01794250     1.49260
C174        C  0.10546238  0.49912038  0.09760125     1.07040
Mn175      Mn  0.98377141  0.53516416  0.99566698     1.49930
C176        C  0.08682988  0.58308744  0.41808939     1.09950
O177        O  0.14871153  0.40483309  0.05640952    -1.03560
O178        O  0.21647024  0.60877344  0.45430572    -0.93230
C179        C  0.14775018  0.40992717  0.10653842     1.21230
O180        O  0.25490175  0.51636940  0.05365145    -1.03950
O181        O  0.19698560  0.66352906  0.41254105    -0.91350
O182        O  0.03290800  0.54767733  0.41449523    -0.90960
O183        O  0.14500848  0.48997546  0.41933236    -0.90980
Mn184      Mn  0.22858783  0.36546555  0.99334943     1.47860
O185        O  0.29230494  0.58297505  0.38332326    -0.79450
C186        C  0.16323901  0.40602989  0.40337755     1.14280
O187        O  0.27787161  0.37544692  0.12714749    -0.78190
O188        O  0.30864663  0.39962331  0.38187994    -0.77800
Mn189      Mn  0.12000513  0.33457397  0.01737908     1.51060
O190        O  0.04033922  0.53593310  0.05795966    -0.90150
O191        O  0.29080990  0.43699397  0.45394886    -0.97680
O192        O  0.09602927  0.59860698  0.46915673    -0.92690
C193        C  0.28716525  0.43358375  0.40295422     1.12070
C194        C  0.20178378  0.39815849  0.28940213    -0.10310
C195        C  0.23784377  0.45319153  0.31421564     0.05880
C196        C  0.25947614  0.50395815  0.27912330    -0.04080
C197        C  0.24001288  0.49979401  0.22517807    -0.08530
C198        C  0.21543978  0.44629515  0.19682387     0.05000
C199        C  0.19012538  0.39520468  0.23192004    -0.03560
Br200      Br  0.11767953  0.33028558  0.21312755    -0.03250
H201        H  0.17801739  0.35762242  0.31536648     0.08910
H202        H  0.24745986  0.54037868  0.20719019     0.06930
Br203      Br  0.33683360  0.57134030  0.28420970    -0.03680
C204        C  0.17868454  0.59085790  0.21927274    -0.10310
C205        C  0.12327212  0.55240670  0.19360234     0.05880
C206        C  0.07799091  0.51096451  0.23478588    -0.04080
C207        C  0.08324109  0.51588739  0.29506761    -0.08530
C208        C  0.13402113  0.56110304  0.32082085     0.05000
C209        C  0.18442066  0.59530982  0.27973650    -0.03560
Br210      Br  0.26544902  0.64804433  0.29811731    -0.03250
H211        H  0.21856968  0.61998361  0.19224303     0.08910
H212        H  0.04540287  0.48425004  0.32246297     0.06930
Br213      Br  0.34203944  0.44169397  0.21584537    -0.03680
C214        C  0.13184228  0.56725954  0.88963947    -0.03650
C215        C  0.21880400  0.44464952  0.63159801    -0.03650
C216        C  0.11651298  0.55569875  0.62507146    -0.03650
C217        C  0.23812712  0.45570607  0.87842461    -0.03650
O218        O  0.05188902  0.45724015  0.59526234    -0.89340
C219        C  0.18969751  0.61405581  0.91323859     1.10700
O220        O  0.04485682  0.40145795  0.50259016    -1.37150
O221        O  0.16691774  0.63052449  0.54822450    -0.90820
O222        O  0.14302229  0.50403633  0.55823390    -0.91490
O223        O  0.08990967  0.38393195  0.62766389    -0.80310
O224        O  0.26653543  0.41291289  0.55535575    -1.02400
C225        C  0.25762047  0.51598510  0.60377378     1.20750
O226        O  0.03031655  0.63376120  0.50246808    -1.37290
Mn227      Mn  0.01093889  0.34238419  0.93401364     1.82060
O228        O  0.28763839  0.57175125  0.62314312    -0.79380
O229        O  0.21976285  0.60007518  0.58673886    -0.88780
C230        C  0.25957593  0.52599060  0.90298497     1.11830
C231        C  0.17370549  0.60443336  0.59051175     1.06560
O232        O  0.10899403  0.38585607  0.88079192    -0.80320
O233        O  0.27597675  0.64797570  0.49931232    -1.34020
O234        O  0.15731006  0.39571287  0.95421852    -0.99530
C235        C  0.06733422  0.56684910  0.60002465     1.05270
Mn236      Mn  0.22390675  0.55673916  0.51170196     1.48570
O237        O  0.07706013  0.61882388  0.59763982    -0.88730
Mn238      Mn  0.14538395  0.44972454  0.49734069     1.49560
O239        O  0.09449033  0.50834917  0.97579392    -0.92610
C240        C  0.25519143  0.40746441  0.60595110     1.18460
C241        C  0.11419935  0.51245010  0.92504473     1.10520
Mn242      Mn  0.00000655  0.33525064  0.57128484     1.80970
O243        O  0.25203854  0.52379507  0.95333983    -0.97790
Mn244      Mn  0.01261909  0.45733030  0.51794236     1.49260
C245        C  0.10545880  0.49912556  0.59760052     1.07040
Mn246      Mn  0.98376738  0.53516953  0.49566753     1.49930
C247        C  0.08683376  0.58308217  0.91808907     1.09950
O248        O  0.14870739  0.40483858  0.55641029    -1.03560
O249        O  0.21647431  0.60876849  0.95430547    -0.93230
C250        C  0.14774643  0.40993286  0.60653930     1.21230
O251        O  0.25489786  0.51637496  0.55365211    -1.03950
O252        O  0.19698959  0.66352404  0.91254051    -0.91350
O253        O  0.03291193  0.54767202  0.91449470    -0.90960
O254        O  0.14501238  0.48997030  0.91933227    -0.90980
Mn255      Mn  0.22858374  0.36547081  0.49334978     1.47860
O256        O  0.29230787  0.58296992  0.88332348    -0.79450
C257        C  0.16324302  0.40602485  0.90337700     1.14280
O258        O  0.27786768  0.37545263  0.62714729    -0.78190
O259        O  0.30865032  0.39961791  0.88187958    -0.77800
Mn260      Mn  0.12000112  0.33457923  0.51737983     1.51060
O261        O  0.04033500  0.53593818  0.55796057    -0.90150
O262        O  0.29081413  0.43698880  0.95394858    -0.97680
O263        O  0.09603295  0.59860169  0.96915632    -0.92690
C264        C  0.28716935  0.43357869  0.90295385     1.12070
C265        C  0.20178620  0.39815781  0.78939987    -0.10310
C266        C  0.23784886  0.45318913  0.81421511     0.05880
C267        C  0.25948380  0.50395765  0.77912475    -0.04080
C268        C  0.24001941  0.49979771  0.72518045    -0.08530
C269        C  0.21543945  0.44629948  0.69682456     0.05000
C270        C  0.19012509  0.39520747  0.73191866    -0.03560
Br271      Br  0.11767922  0.33028926  0.71312505    -0.03250
H272        H  0.17801988  0.35762062  0.81536275     0.08910
H273        H  0.24747133  0.54038515  0.70719501     0.06930
Br274      Br  0.33684256  0.57133804  0.78421327    -0.03680
C275        C  0.17868374  0.59085994  0.71927201    -0.10310
C276        C  0.12327069  0.55240868  0.69360230     0.05880
C277        C  0.07799255  0.51096224  0.73478568    -0.04080
C278        C  0.08324510  0.51588222  0.79506740    -0.08530
C279        C  0.13402429  0.56109897  0.82082055     0.05000
C280        C  0.18442212  0.59530863  0.77973564    -0.03560
Br281      Br  0.26545176  0.64803935  0.79811573    -0.03250
H282        H  0.21856782  0.61998768  0.69224209     0.08910
H283        H  0.04540895  0.48424218  0.82246297     0.06930
Br284      Br  0.34204164  0.44169045  0.71584567    -0.03680
C285        C  0.13184321  0.90059761  0.38963870    -0.03650
C286        C  0.21881123  0.77797779  0.13159751    -0.03650
C287        C  0.11652094  0.88902672  0.12507053    -0.03650
C288        C  0.23812551  0.78904366  0.37842511    -0.03650
O289        O  0.05189693  0.79056788  0.09526190    -0.89340
C290        C  0.18969867  0.94739423  0.41323761     1.10700
O291        O  0.04486371  0.73478569  0.00258981    -1.37150
O292        O  0.16692555  0.96385228  0.04822345    -0.90820
O293        O  0.14303032  0.83736406  0.05823340    -0.91490
O294        O  0.08991701  0.71726096  0.12766203    -0.80310
O295        O  0.26654276  0.74624033  0.05535592    -1.02400
C296        C  0.25762836  0.84931288  0.10377252     1.20750
O297        O  0.03032375  0.96708914  0.00246760    -1.37290
Mn298      Mn  0.01093592  0.67572249  0.43401411     1.82060
O299        O  0.28764620  0.90507908  0.12314154    -0.79380
O300        O  0.21977083  0.93340308  0.08673784    -0.88780
C301        C  0.25957595  0.85932886  0.40298489     1.11830
C302        C  0.17371343  0.93776120  0.09051071     1.06560
O303        O  0.10899154  0.71919425  0.38079220    -0.80320
O304        O  0.27598365  0.98130358  0.99931173    -1.34020
O305        O  0.15730798  0.72905073  0.45421848    -0.99530
C306        C  0.06734229  0.90017672  0.10002346     1.05270
Mn307      Mn  0.22391461  0.89006681  0.01170112     1.48570
O308        O  0.07706765  0.95215120  0.09763904    -0.88730
Mn309      Mn  0.14539161  0.78305233  0.99733999     1.49560
O310        O  0.09448953  0.84168657  0.47579279    -0.92610
C311        C  0.25519863  0.74079241  0.10595135     1.18460
C312        C  0.11419959  0.84578820  0.42504395     1.10520
Mn313      Mn  0.00001231  0.66857863  0.07128481     1.80970
O314        O  0.25203923  0.85713360  0.45333977    -0.97790
Mn315      Mn  0.01262646  0.79065794  0.01794202     1.49260
C316        C  0.10546681  0.83245330  0.09760008     1.07040
Mn317      Mn  0.98377595  0.86849759  0.99566675     1.49930
C318        C  0.08683483  0.91642074  0.41808880     1.09950
O319        O  0.14871650  0.73816695  0.05640927    -1.03560
O320        O  0.21647556  0.94210712  0.45430452    -0.93230
C321        C  0.14775414  0.74326105  0.10653818     1.21230
O322        O  0.25490588  0.84970241  0.05365095    -1.03950
O323        O  0.19698985  0.99686229  0.41254013    -0.91350
O324        O  0.03291258  0.88101106  0.41449509    -0.90960
O325        O  0.14501313  0.82330910  0.41933209    -0.90980
Mn326      Mn  0.22858918  0.69879882  0.99335004     1.47860
O327        O  0.29230745  0.91630824  0.38332335    -0.79450
C328        C  0.16324075  0.73936295  0.40337713     1.14280
O329        O  0.27787468  0.70878074  0.12714789    -0.78190
O330        O  0.30864794  0.73295575  0.38188017    -0.77800
Mn331      Mn  0.12000525  0.66790745  0.01737843     1.51060
O332        O  0.04034390  0.86926627  0.05795902    -0.90150
O333        O  0.29081221  0.77032656  0.45394918    -0.97680
O334        O  0.09603570  0.93194068  0.46915605    -0.92690
C335        C  0.28716712  0.76691629  0.40295463     1.12070
C336        C  0.20178545  0.73149230  0.28940252    -0.10310
C337        C  0.23784851  0.78652446  0.31421610     0.05880
C338        C  0.25948716  0.83729149  0.27912347    -0.04080
C339        C  0.24002587  0.83312941  0.22517791    -0.08530
C340        C  0.21544565  0.77962977  0.19682399     0.05000
C341        C  0.19012737  0.72853913  0.23192057    -0.03560
Br342      Br  0.11767736  0.66362264  0.21313100    -0.03250
H343        H  0.17801600  0.69095644  0.31536693     0.08910
H344        H  0.24747683  0.87371600  0.20719171     0.06930
Br345      Br  0.33684441  0.90467309  0.28421539    -0.03680
C346        C  0.17869037  0.92418912  0.21927169    -0.10310
C347        C  0.12327763  0.88573791  0.19360158     0.05880
C348        C  0.07799733  0.84429470  0.23478530    -0.04080
C349        C  0.08324800  0.84921769  0.29506700    -0.08530
C350        C  0.13402693  0.89443521  0.32081994     0.05000
C351        C  0.18442660  0.92864197  0.27973546    -0.03560
Br352      Br  0.26545539  0.98137727  0.29811570    -0.03250
H353        H  0.21857538  0.95331474  0.19224178     0.08910
H354        H  0.04541062  0.81757934  0.32246270     0.06930
Br355      Br  0.34204712  0.77502216  0.21584566    -0.03680
C356        C  0.13184713  0.90059256  0.88963853    -0.03650
C357        C  0.21880804  0.77798350  0.63159805    -0.03650
C358        C  0.11651754  0.88903119  0.62507084    -0.03650
C359        C  0.23812966  0.78903892  0.87842480    -0.03650
O360        O  0.05189332  0.79057307  0.59526121    -0.89340
C361        C  0.18970262  0.94738921  0.91323733     1.10700
O362        O  0.04485977  0.73479109  0.50259001    -1.37150
O363        O  0.16692150  0.96385753  0.54822406    -0.90820
O364        O  0.14302671  0.83736964  0.55823267    -0.91490
O365        O  0.08991323  0.71726644  0.62766302    -0.80310
O366        O  0.26653883  0.74624621  0.55535585    -1.02400
C367        C  0.25762442  0.84931861  0.60377325     1.20750
O368        O  0.03031981  0.96709450  0.50246819    -1.37290
Mn369      Mn  0.01093969  0.67571723  0.93401383     1.82060
O370        O  0.28764181  0.90508485  0.62314215    -0.79380
O371        O  0.21976734  0.93340877  0.58673768    -0.88780
C372        C  0.25957970  0.85932372  0.90298507     1.11830
C373        C  0.17370969  0.93776633  0.59051101     1.06560
O374        O  0.10899544  0.71918914  0.88079175    -0.80320
O375        O  0.27597989  0.98130910  0.49931205    -1.34020
O376        O  0.15731205  0.72904561  0.95421789    -0.99530
C377        C  0.06733841  0.90018154  0.60002447     1.05270
Mn378      Mn  0.22391117  0.89007238  0.51170126     1.48570
O379        O  0.07706390  0.95215616  0.59764002    -0.88730
Mn380      Mn  0.14538767  0.78305761  0.49734016     1.49560
O381        O  0.09449374  0.84168158  0.97579291    -0.92610
C382        C  0.25519499  0.74079828  0.60595122     1.18460
C383        C  0.11420364  0.84578315  0.92504394     1.10520
Mn384      Mn  0.00000844  0.66858425  0.57128524     1.80970
O385        O  0.25204314  0.85712827  0.95333985    -0.97790
Mn386      Mn  0.01262249  0.79066341  0.51794188     1.49260
C387        C  0.10546323  0.83245848  0.59759935     1.07040
Mn388      Mn  0.98377193  0.86850295  0.49566730     1.49930
C389        C  0.08683871  0.91641547  0.91808848     1.09950
O390        O  0.14871236  0.73817243  0.55641005    -1.03560
O391        O  0.21647963  0.94210218  0.95430427    -0.93230
C392        C  0.14775039  0.74326674  0.60653906     1.21230
O393        O  0.25490199  0.84970797  0.55365161    -1.03950
O394        O  0.19699383  0.99685728  0.91253959    -0.91350
O395        O  0.03291650  0.88100575  0.91449456    -0.90960
O396        O  0.14501704  0.82330394  0.91933200    -0.90980
Mn397      Mn  0.22858509  0.69880407  0.49335039     1.47860
O398        O  0.29231038  0.91630312  0.88332357    -0.79450
C399        C  0.16324476  0.73935790  0.90337657     1.14280
O400        O  0.27787075  0.70878645  0.62714769    -0.78190
O401        O  0.30865163  0.73295036  0.88187980    -0.77800
Mn402      Mn  0.12000124  0.66791270  0.51737919     1.51060
O403        O  0.04033969  0.86927135  0.55795992    -0.90150
O404        O  0.29081643  0.77032140  0.95394890    -0.97680
O405        O  0.09603938  0.93193539  0.96915564    -0.92690
C406        C  0.28717121  0.76691123  0.90295426     1.12070
C407        C  0.20178788  0.73149161  0.78940027    -0.10310
C408        C  0.23785360  0.78652206  0.81421556     0.05880
C409        C  0.25949480  0.83729099  0.77912492    -0.04080
C410        C  0.24003237  0.83313310  0.72518029    -0.08530
C411        C  0.21544532  0.77963411  0.69682468     0.05000
C412        C  0.19012708  0.72854191  0.73191919    -0.03560
Br413      Br  0.11767705  0.66362632  0.71312849    -0.03250
H414        H  0.17801850  0.69095464  0.81536321     0.08910
H415        H  0.24748826  0.87372246  0.70719652     0.06930
Br416      Br  0.33685335  0.90467083  0.78421894    -0.03680
C417        C  0.17868956  0.92419116  0.71927097    -0.10310
C418        C  0.12327619  0.88573989  0.69360154     0.05880
C419        C  0.07799897  0.84429243  0.73478511    -0.04080
C420        C  0.08325201  0.84921253  0.79506679    -0.08530
C421        C  0.13403009  0.89443114  0.82081964     0.05000
C422        C  0.18442805  0.92864078  0.77973460    -0.03560
Br423      Br  0.26545812  0.98137230  0.79811413    -0.03250
H424        H  0.21857351  0.95331883  0.69224084     0.08910
H425        H  0.04541669  0.81757150  0.82246270     0.06930
Br426      Br  0.34204931  0.77501865  0.71584597    -0.03680
C427        C  0.46517758  0.23393141  0.38964016    -0.03650
C428        C  0.55214518  0.11131039  0.13159757    -0.03650
C429        C  0.44985386  0.22236054  0.12507139    -0.03650
C430        C  0.57146101  0.12237703  0.37842521    -0.03650
O431        O  0.38523102  0.12390136  0.09526307    -0.89340
C432        C  0.52303287  0.28072983  0.41323758     1.10700
O433        O  0.37819949  0.06811927  0.00259019    -1.37150
O434        O  0.50025615  0.29718540  0.04822346    -0.90820
O435        O  0.47636500  0.17069676  0.05823645    -0.91490
O436        O  0.42325144  0.05059307  0.12766307    -0.80310
O437        O  0.59987807  0.07957387  0.05535571    -1.02400
C438        C  0.59096001  0.18264548  0.10377236     1.20750
O439        O  0.36365388  0.30042243  0.00246772    -1.37290
Mn440      Mn  0.34427222  0.00905592  0.43401422     1.82060
O441        O  0.62097671  0.23841186  0.12314126    -0.79380
O442        O  0.55310338  0.26673764  0.08673660    -0.88780
C443        C  0.59291013  0.19266229  0.40298460     1.11830
C444        C  0.50704537  0.27109484  0.09051034     1.06560
O445        O  0.44232772  0.05252765  0.38079272    -0.80320
O446        O  0.60931293  0.31463719  0.99931079    -1.34020
O447        O  0.49064429  0.06238447  0.45421919    -0.99530
C448        C  0.40067429  0.23350979  0.10002471     1.05270
Mn449      Mn  0.55724661  0.22340041  0.01170017     1.48570
O450        O  0.41039914  0.28548428  0.09763992    -0.88730
Mn451      Mn  0.47872697  0.11638566  0.99734142     1.49560
O452        O  0.42782651  0.17502165  0.47579519    -0.92610
C453        C  0.58853353  0.07412557  0.10595116     1.18460
C454        C  0.44753596  0.17912300  0.42504620     1.10520
Mn455      Mn  0.33334816  0.00191191  0.07128473     1.80970
O456        O  0.58537271  0.19046732  0.45333944    -0.97790
Mn457      Mn  0.34596228  0.12399177  0.01794263     1.49260
C458        C  0.43880055  0.16578682  0.09760182     1.07040
Mn459      Mn  0.31710802  0.20183060  0.99566754     1.49930
C460        C  0.42016800  0.24975323  0.41809052     1.09950
O461        O  0.48205013  0.07149894  0.05640999    -1.03560
O462        O  0.54981346  0.27544563  0.45430327    -0.93230
C463        C  0.48108823  0.07659305  0.10653885     1.21230
O464        O  0.58823669  0.18303458  0.05365077    -1.03950
O465        O  0.53032000  0.33019638  0.41254025    -0.91350
O466        O  0.36624588  0.21434362  0.41449676    -0.90960
O467        O  0.47834856  0.15664294  0.41933368    -0.90980
Mn468      Mn  0.56192567  0.03213209  0.99334951     1.47860
O469        O  0.62563996  0.24964166  0.38332282    -0.79450
C470        C  0.49657683  0.07269637  0.40337771     1.14280
O471        O  0.61120980  0.04211392  0.12714771    -0.78190
O472        O  0.64198401  0.06628918  0.38188000    -0.77800
Mn473      Mn  0.45334164  0.00124033  0.01737864     1.51060
O474        O  0.37367549  0.20259875  0.05796071    -0.90150
O475        O  0.62414867  0.10366026  0.45394902    -0.97680
O476        O  0.42936914  0.26527386  0.46915749    -0.92690
C477        C  0.62050328  0.10024992  0.40295446     1.12070
C478        C  0.53512107  0.06482475  0.28940255    -0.10310
C479        C  0.57118283  0.11985727  0.31421615     0.05880
C480        C  0.59281929  0.17062407  0.27912369    -0.04080
C481        C  0.57335754  0.16646149  0.22517820    -0.08530
C482        C  0.54877948  0.11296214  0.19682409     0.05000
C483        C  0.52346299  0.06187145  0.23192045    -0.03560
Br484      Br  0.45101596  0.99695286  0.21312868    -0.03250
H485        H  0.51135299  0.02428874  0.31536687     0.08910
H486        H  0.58080752  0.20704766  0.20719174     0.06930
Br487      Br  0.67017628  0.23800575  0.28421475    -0.03680
C488        C  0.51202394  0.25752430  0.21927248    -0.10310
C489        C  0.45661128  0.21907262  0.19360251     0.05880
C490        C  0.41133131  0.17762939  0.23478637    -0.04080
C491        C  0.41658224  0.18255206  0.29506811    -0.08530
C492        C  0.46736120  0.22776933  0.32082117     0.05000
C493        C  0.51776054  0.26197691  0.27973631    -0.03560
Br494      Br  0.59878967  0.31471262  0.29811564    -0.03250
H495        H  0.55190867  0.28664991  0.19224228     0.08910
H496        H  0.37874494  0.15091370  0.32246374     0.06930
Br497      Br  0.67538014  0.10835810  0.21584621    -0.03680
C498        C  0.46518150  0.23392636  0.88963999    -0.03650
C499        C  0.55214199  0.11131609  0.63159810    -0.03650
C500        C  0.44985047  0.22236501  0.62507169    -0.03650
C501        C  0.57146515  0.12237228  0.87842490    -0.03650
O502        O  0.38522742  0.12390655  0.59526237    -0.89340
C503        C  0.52303682  0.28072481  0.91323730     1.10700
O504        O  0.37819555  0.06812467  0.50259038    -1.37150
O505        O  0.50025210  0.29719065  0.54822408    -0.90820
O506        O  0.47636140  0.17070234  0.55823572    -0.91490
O507        O  0.42324766  0.05059855  0.62766405    -0.80310
O508        O  0.59987413  0.07957975  0.55535563    -1.02400
C509        C  0.59095607  0.18265122  0.60377308     1.20750
O510        O  0.36364994  0.30042779  0.50246830    -1.37290
Mn511      Mn  0.34427599  0.00905066  0.93401395     1.82060
O512        O  0.62097232  0.23841763  0.62314186    -0.79380
O513        O  0.55309989  0.26674333  0.58673643    -0.88780
C514        C  0.59291388  0.19265716  0.90298479     1.11830
C515        C  0.50704164  0.27109997  0.59051065     1.06560
O516        O  0.44233162  0.05252253  0.88079228    -0.80320
O517        O  0.60930917  0.31464271  0.49931111    -1.34020
O518        O  0.49064835  0.06237935  0.95421861    -0.99530
C519        C  0.40067041  0.23351462  0.60002572     1.05270
Mn520      Mn  0.55724318  0.22340598  0.51170030     1.48570
O521        O  0.41039538  0.28548924  0.59764090    -0.88730
Mn522      Mn  0.47872303  0.11639094  0.49734159     1.49560
O523        O  0.42783072  0.17501665  0.97579532    -0.92610
C524        C  0.58852990  0.07413144  0.60595103     1.18460
C525        C  0.44754000  0.17911794  0.92504620     1.10520
Mn526      Mn  0.33334429  0.00191754  0.57128516     1.80970
O527        O  0.58537662  0.19046199  0.95333953    -0.97790
Mn528      Mn  0.34595832  0.12399724  0.51794249     1.49260
C529        C  0.43879698  0.16579200  0.59760110     1.07040
Mn530      Mn  0.31710400  0.20183596  0.49566808     1.49930
C531        C  0.42017188  0.24974795  0.91809020     1.09950
O532        O  0.48204599  0.07150443  0.55641077    -1.03560
O533        O  0.54981752  0.27544068  0.95430302    -0.93230
C534        C  0.48108449  0.07659874  0.60653973     1.21230
O535        O  0.58823280  0.18304014  0.55365143    -1.03950
O536        O  0.53032398  0.33019137  0.91253972    -0.91350
O537        O  0.36624980  0.21433832  0.91449623    -0.90960
O538        O  0.47835246  0.15663777  0.91933358    -0.90980
Mn539      Mn  0.56192158  0.03213734  0.49334986     1.47860
O540        O  0.62564288  0.24963653  0.88332304    -0.79450
C541        C  0.49658084  0.07269133  0.90337715     1.14280
O542        O  0.61120587  0.04211963  0.62714751    -0.78190
O543        O  0.64198771  0.06628379  0.88187963    -0.77800
Mn544      Mn  0.45333762  0.00124559  0.51737940     1.51060
O545        O  0.37367127  0.20260383  0.55796162    -0.90150
O546        O  0.62415289  0.10365510  0.95394875    -0.97680
O547        O  0.42937283  0.26526857  0.96915709    -0.92690
C548        C  0.62050737  0.10024486  0.90295410     1.12070
C549        C  0.53512349  0.06482407  0.78940030    -0.10310
C550        C  0.57118792  0.11985488  0.81421562     0.05880
C551        C  0.59282696  0.17062357  0.77912514    -0.04080
C552        C  0.57336408  0.16646519  0.72518058    -0.08530
C553        C  0.54877916  0.11296648  0.69682478     0.05000
C554        C  0.52346271  0.06187424  0.73191908    -0.03560
Br555      Br  0.45101565  0.99695654  0.71312619    -0.03250
H556        H  0.51135548  0.02428694  0.81536314     0.08910
H557        H  0.58081901  0.20705413  0.70719656     0.06930
Br558      Br  0.67018525  0.23800350  0.78421832    -0.03680
C559        C  0.51202314  0.25752633  0.71927175    -0.10310
C560        C  0.45660986  0.21907460  0.69360247     0.05880
C561        C  0.41133295  0.17762712  0.73478617    -0.04080
C562        C  0.41658624  0.18254689  0.79506790    -0.08530
C563        C  0.46736436  0.22776526  0.82082086     0.05000
C564        C  0.51776199  0.26197572  0.77973544    -0.03560
Br565      Br  0.59879240  0.31470764  0.79811406    -0.03250
H566        H  0.55190681  0.28665399  0.69224134     0.08910
H567        H  0.37875101  0.15090585  0.82246373     0.06930
Br568      Br  0.67538234  0.10835459  0.71584651    -0.03680
C569        C  0.46517170  0.56726460  0.38963964    -0.03650
C570        C  0.55214052  0.44464382  0.13159748    -0.03650
C571        C  0.44984971  0.55569428  0.12507115    -0.03650
C572        C  0.57145631  0.45571082  0.37842491    -0.03650
O573        O  0.38522596  0.45723496  0.09526304    -0.89340
C574        C  0.52302689  0.61406083  0.41323887     1.10700
O575        O  0.37819409  0.40145255  0.00258997    -1.37150
O576        O  0.50025513  0.63051924  0.04822388    -0.90820
O577        O  0.47635922  0.50403075  0.05823463    -0.91490
O578        O  0.42324679  0.38392647  0.12766291    -0.80310
O579        O  0.59987270  0.41290702  0.05535583    -1.02400
C580        C  0.59095775  0.51597936  0.10377306     1.20750
O581        O  0.36365382  0.63375584  0.00246749    -1.37290
Mn582      Mn  0.34426845  0.34238945  0.43401391     1.82060
O583        O  0.62097612  0.57174549  0.12314252    -0.79380
O584        O  0.55309968  0.60006949  0.08673903    -0.88780
C585        C  0.59290551  0.52599574  0.40298478     1.11830
C586        C  0.50704256  0.60442824  0.09051144     1.06560
O587        O  0.44232347  0.38586118  0.38079236    -0.80320
O588        O  0.60931384  0.64797018  0.99931199    -1.34020
O589        O  0.49063932  0.39571800  0.45421910    -0.99530
C590        C  0.40067144  0.56684428  0.10002363     1.05270
Mn591      Mn  0.55724352  0.55673359  0.01170183     1.48570
O592        O  0.41039721  0.61881893  0.09763884    -0.88730
Mn593      Mn  0.47872122  0.44971926  0.99734051     1.49560
O594        O  0.42781945  0.50835416  0.47579380    -0.92610
C595        C  0.58852839  0.40745854  0.10595123     1.18460
C596        C  0.44752865  0.51245516  0.42504474     1.10520
Mn597      Mn  0.33334375  0.33524501  0.07128442     1.80970
O598        O  0.58536796  0.52380040  0.45333975    -0.97790
Mn599      Mn  0.34595639  0.45732483  0.01794250     1.49260
C600        C  0.43879572  0.49912038  0.09760125     1.07040
Mn601      Mn  0.31710474  0.53516416  0.99566698     1.49930
C602        C  0.42016321  0.58308744  0.41808939     1.09950
O603        O  0.48204487  0.40483309  0.05640952    -1.03560
O604        O  0.54980357  0.60877344  0.45430572    -0.93230
C605        C  0.48108351  0.40992718  0.10653842     1.21230
O606        O  0.58823509  0.51636940  0.05365145    -1.03950
O607        O  0.53031893  0.66352906  0.41254105    -0.91350
O608        O  0.36624133  0.54767733  0.41449523    -0.90960
O609        O  0.47834181  0.48997546  0.41933236    -0.90980
Mn610      Mn  0.56192116  0.36546555  0.99334943     1.47860
O611        O  0.62563827  0.58297505  0.38332326    -0.79450
C612        C  0.49657234  0.40602989  0.40337755     1.14280
O613        O  0.61120494  0.37544692  0.12714749    -0.78190
O614        O  0.64197996  0.39962331  0.38187994    -0.77800
Mn615      Mn  0.45333847  0.33457397  0.01737908     1.51060
O616        O  0.37367255  0.53593310  0.05795966    -0.90150
O617        O  0.62414324  0.43699397  0.45394886    -0.97680
O618        O  0.42936260  0.59860698  0.46915673    -0.92690
C619        C  0.62049858  0.43358375  0.40295422     1.12070
C620        C  0.53511711  0.39815849  0.28940213    -0.10310
C621        C  0.57117711  0.45319153  0.31421564     0.05880
C622        C  0.59280947  0.50395815  0.27912330    -0.04080
C623        C  0.57334621  0.49979401  0.22517807    -0.08530
C624        C  0.54877311  0.44629515  0.19682387     0.05000
C625        C  0.52345871  0.39520468  0.23192004    -0.03560
Br626      Br  0.45101287  0.33028558  0.21312755    -0.03250
H627        H  0.51135072  0.35762242  0.31536648     0.08910
H628        H  0.58079319  0.54037868  0.20719019     0.06930
Br629      Br  0.67016693  0.57134030  0.28420970    -0.03680
C630        C  0.51201787  0.59085790  0.21927274    -0.10310
C631        C  0.45660545  0.55240670  0.19360234     0.05880
C632        C  0.41132424  0.51096451  0.23478588    -0.04080
C633        C  0.41657443  0.51588739  0.29506761    -0.08530
C634        C  0.46735446  0.56110304  0.32082085     0.05000
C635        C  0.51775400  0.59530982  0.27973650    -0.03560
Br636      Br  0.59878236  0.64804433  0.29811731    -0.03250
H637        H  0.55190301  0.61998361  0.19224303     0.08910
H638        H  0.37873620  0.48425004  0.32246297     0.06930
Br639      Br  0.67537278  0.44169397  0.21584537    -0.03680
C640        C  0.46517561  0.56725954  0.88963947    -0.03650
C641        C  0.55213733  0.44464952  0.63159801    -0.03650
C642        C  0.44984632  0.55569875  0.62507146    -0.03650
C643        C  0.57146045  0.45570607  0.87842461    -0.03650
O644        O  0.38522235  0.45724015  0.59526234    -0.89340
C645        C  0.52303085  0.61405581  0.91323859     1.10700
O646        O  0.37819015  0.40145795  0.50259016    -1.37150
O647        O  0.50025108  0.63052449  0.54822450    -0.90820
O648        O  0.47635562  0.50403633  0.55823390    -0.91490
O649        O  0.42324300  0.38393195  0.62766389    -0.80310
O650        O  0.59986876  0.41291289  0.55535575    -1.02400
C651        C  0.59095381  0.51598510  0.60377378     1.20750
O652        O  0.36364988  0.63376120  0.50246808    -1.37290
Mn653      Mn  0.34427222  0.34238419  0.93401364     1.82060
O654        O  0.62097172  0.57175126  0.62314312    -0.79380
O655        O  0.55309619  0.60007518  0.58673886    -0.88780
C656        C  0.59290926  0.52599060  0.90298497     1.11830
C657        C  0.50703883  0.60443336  0.59051175     1.06560
O658        O  0.44232736  0.38585607  0.88079192    -0.80320
O659        O  0.60931008  0.64797570  0.49931232    -1.34020
O660        O  0.49064339  0.39571287  0.95421852    -0.99530
C661        C  0.40066755  0.56684910  0.60002465     1.05270
Mn662      Mn  0.55724008  0.55673916  0.51170196     1.48570
O663        O  0.41039346  0.61882388  0.59763982    -0.88730
Mn664      Mn  0.47871728  0.44972454  0.49734069     1.49560
O665        O  0.42782366  0.50834917  0.97579392    -0.92610
C666        C  0.58852476  0.40746441  0.60595110     1.18460
C667        C  0.44753269  0.51245010  0.92504473     1.10520
Mn668      Mn  0.33333988  0.33525064  0.57128484     1.80970
O669        O  0.58537187  0.52379507  0.95333983    -0.97790
Mn670      Mn  0.34595242  0.45733030  0.51794236     1.49260
C671        C  0.43879214  0.49912556  0.59760052     1.07040
Mn672      Mn  0.31710072  0.53516953  0.49566753     1.49930
C673        C  0.42016709  0.58308217  0.91808907     1.09950
O674        O  0.48204072  0.40483858  0.55641029    -1.03560
O675        O  0.54980764  0.60876849  0.95430547    -0.93230
C676        C  0.48107976  0.40993286  0.60653930     1.21230
O677        O  0.58823119  0.51637496  0.55365211    -1.03950
O678        O  0.53032292  0.66352404  0.91254051    -0.91350
O679        O  0.36624526  0.54767202  0.91449470    -0.90960
O680        O  0.47834572  0.48997030  0.91933227    -0.90980
Mn681      Mn  0.56191707  0.36547081  0.49334978     1.47860
O682        O  0.62564120  0.58296992  0.88332348    -0.79450
C683        C  0.49657635  0.40602485  0.90337700     1.14280
O684        O  0.61120101  0.37545263  0.62714729    -0.78190
O685        O  0.64198365  0.39961791  0.88187958    -0.77800
Mn686      Mn  0.45333445  0.33457923  0.51737983     1.51060
O687        O  0.37366833  0.53593818  0.55796057    -0.90150
O688        O  0.62414746  0.43698880  0.95394858    -0.97680
O689        O  0.42936629  0.59860169  0.96915632    -0.92690
C690        C  0.62050268  0.43357869  0.90295385     1.12070
C691        C  0.53511954  0.39815781  0.78939987    -0.10310
C692        C  0.57118220  0.45318913  0.81421511     0.05880
C693        C  0.59281713  0.50395765  0.77912475    -0.04080
C694        C  0.57335274  0.49979771  0.72518045    -0.08530
C695        C  0.54877278  0.44629948  0.69682456     0.05000
C696        C  0.52345842  0.39520747  0.73191866    -0.03560
Br697      Br  0.45101256  0.33028926  0.71312505    -0.03250
H698        H  0.51135321  0.35762062  0.81536275     0.08910
H699        H  0.58080466  0.54038515  0.70719501     0.06930
Br700      Br  0.67017589  0.57133804  0.78421327    -0.03680
C701        C  0.51201707  0.59085994  0.71927201    -0.10310
C702        C  0.45660402  0.55240868  0.69360230     0.05880
C703        C  0.41132588  0.51096224  0.73478568    -0.04080
C704        C  0.41657844  0.51588222  0.79506740    -0.08530
C705        C  0.46735762  0.56109897  0.82082055     0.05000
C706        C  0.51775545  0.59530863  0.77973564    -0.03560
Br707      Br  0.59878509  0.64803935  0.79811573    -0.03250
H708        H  0.55190115  0.61998768  0.69224209     0.08910
H709        H  0.37874228  0.48424218  0.82246297     0.06930
Br710      Br  0.67537497  0.44169045  0.71584567    -0.03680
C711        C  0.46517655  0.90059761  0.38963870    -0.03650
C712        C  0.55214456  0.77797779  0.13159751    -0.03650
C713        C  0.44985427  0.88902672  0.12507053    -0.03650
C714        C  0.57145885  0.78904366  0.37842511    -0.03650
O715        O  0.38523026  0.79056788  0.09526190    -0.89340
C716        C  0.52303200  0.94739423  0.41323761     1.10700
O717        O  0.37819705  0.73478569  0.00258981    -1.37150
O718        O  0.50025888  0.96385228  0.04822345    -0.90820
O719        O  0.47636365  0.83736406  0.05823340    -0.91490
O720        O  0.42325034  0.71726096  0.12766203    -0.80310
O721        O  0.59987610  0.74624033  0.05535592    -1.02400
C722        C  0.59096169  0.84931288  0.10377252     1.20750
O723        O  0.36365709  0.96708914  0.00246760    -1.37290
Mn724      Mn  0.34426925  0.67572249  0.43401411     1.82060
O725        O  0.62097953  0.90507908  0.12314154    -0.79380
O726        O  0.55310416  0.93340308  0.08673784    -0.88780
C727        C  0.59290928  0.85932886  0.40298489     1.11830
C728        C  0.50704676  0.93776120  0.09051071     1.06560
O729        O  0.44232487  0.71919425  0.38079220    -0.80320
O730        O  0.60931699  0.98130358  0.99931173    -1.34020
O731        O  0.49064132  0.72905073  0.45421848    -0.99530
C732        C  0.40067563  0.90017672  0.10002346     1.05270
Mn733      Mn  0.55724794  0.89006681  0.01170112     1.48570
O734        O  0.41040099  0.95215120  0.09763904    -0.88730
Mn735      Mn  0.47872494  0.78305233  0.99733999     1.49560
O736        O  0.42782286  0.84168657  0.47579279    -0.92610
C737        C  0.58853196  0.74079241  0.10595135     1.18460
C738        C  0.44753293  0.84578820  0.42504395     1.10520
Mn739      Mn  0.33334564  0.66857863  0.07128481     1.80970
O740        O  0.58537256  0.85713360  0.45333977    -0.97790
Mn741      Mn  0.34595979  0.79065794  0.01794202     1.49260
C742        C  0.43880015  0.83245330  0.09760008     1.07040
Mn743      Mn  0.31710929  0.86849759  0.99566675     1.49930
C744        C  0.42016816  0.91642074  0.41808880     1.09950
O745        O  0.48204984  0.73816695  0.05640927    -1.03560
O746        O  0.54980889  0.94210712  0.45430452    -0.93230
C747        C  0.48108747  0.74326105  0.10653818     1.21230
O748        O  0.58823921  0.84970241  0.05365095    -1.03950
O749        O  0.53032318  0.99686229  0.41254013    -0.91350
O750        O  0.36624591  0.88101106  0.41449509    -0.90960
O751        O  0.47834647  0.82330910  0.41933209    -0.90980
Mn752      Mn  0.56192251  0.69879882  0.99335004     1.47860
O753        O  0.62564079  0.91630824  0.38332335    -0.79450
C754        C  0.49657408  0.73936295  0.40337713     1.14280
O755        O  0.61120801  0.70878074  0.12714789    -0.78190
O756        O  0.64198127  0.73295575  0.38188017    -0.77800
Mn757      Mn  0.45333859  0.66790745  0.01737843     1.51060
O758        O  0.37367724  0.86926627  0.05795902    -0.90150
O759        O  0.62414554  0.77032656  0.45394918    -0.97680
O760        O  0.42936903  0.93194068  0.46915605    -0.92690
C761        C  0.62050045  0.76691629  0.40295463     1.12070
C762        C  0.53511878  0.73149230  0.28940252    -0.10310
C763        C  0.57118185  0.78652446  0.31421610     0.05880
C764        C  0.59282049  0.83729149  0.27912347    -0.04080
C765        C  0.57335920  0.83312941  0.22517791    -0.08530
C766        C  0.54877899  0.77962977  0.19682399     0.05000
C767        C  0.52346070  0.72853913  0.23192057    -0.03560
Br768      Br  0.45101069  0.66362264  0.21313100    -0.03250
H769        H  0.51134933  0.69095644  0.31536693     0.08910
H770        H  0.58081016  0.87371600  0.20719171     0.06930
Br771      Br  0.67017775  0.90467309  0.28421539    -0.03680
C772        C  0.51202371  0.92418912  0.21927169    -0.10310
C773        C  0.45661096  0.88573791  0.19360158     0.05880
C774        C  0.41133067  0.84429470  0.23478530    -0.04080
C775        C  0.41658134  0.84921769  0.29506700    -0.08530
C776        C  0.46736026  0.89443521  0.32081994     0.05000
C777        C  0.51775993  0.92864197  0.27973546    -0.03560
Br778      Br  0.59878872  0.98137727  0.29811570    -0.03250
H779        H  0.55190871  0.95331474  0.19224178     0.08910
H780        H  0.37874396  0.81757934  0.32246270     0.06930
Br781      Br  0.67538045  0.77502216  0.21584566    -0.03680
C782        C  0.46518046  0.90059256  0.88963853    -0.03650
C783        C  0.55214137  0.77798350  0.63159805    -0.03650
C784        C  0.44985088  0.88903119  0.62507084    -0.03650
C785        C  0.57146299  0.78903892  0.87842480    -0.03650
O786        O  0.38522665  0.79057307  0.59526121    -0.89340
C787        C  0.52303595  0.94738921  0.91323733     1.10700
O788        O  0.37819310  0.73479109  0.50259001    -1.37150
O789        O  0.50025483  0.96385753  0.54822406    -0.90820
O790        O  0.47636005  0.83736964  0.55823267    -0.91490
O791        O  0.42324656  0.71726644  0.62766302    -0.80310
O792        O  0.59987216  0.74624621  0.55535585    -1.02400
C793        C  0.59095775  0.84931861  0.60377325     1.20750
O794        O  0.36365315  0.96709450  0.50246819    -1.37290
Mn795      Mn  0.34427302  0.67571723  0.93401383     1.82060
O796        O  0.62097514  0.90508485  0.62314215    -0.79380
O797        O  0.55310068  0.93340877  0.58673768    -0.88780
C798        C  0.59291303  0.85932372  0.90298507     1.11830
C799        C  0.50704303  0.93776633  0.59051101     1.06560
O800        O  0.44232877  0.71918914  0.88079175    -0.80320
O801        O  0.60931323  0.98130910  0.49931205    -1.34020
O802        O  0.49064538  0.72904561  0.95421789    -0.99530
C803        C  0.40067174  0.90018154  0.60002447     1.05270
Mn804      Mn  0.55724451  0.89007238  0.51170126     1.48570
O805        O  0.41039723  0.95215616  0.59764002    -0.88730
Mn806      Mn  0.47872101  0.78305761  0.49734016     1.49560
O807        O  0.42782707  0.84168158  0.97579291    -0.92610
C808        C  0.58852833  0.74079828  0.60595122     1.18460
C809        C  0.44753697  0.84578315  0.92504394     1.10520
Mn810      Mn  0.33334177  0.66858425  0.57128524     1.80970
O811        O  0.58537647  0.85712827  0.95333985    -0.97790
Mn812      Mn  0.34595582  0.79066341  0.51794188     1.49260
C813        C  0.43879657  0.83245848  0.59759935     1.07040
Mn814      Mn  0.31710527  0.86850295  0.49566730     1.49930
C815        C  0.42017204  0.91641547  0.91808848     1.09950
O816        O  0.48204569  0.73817243  0.55641005    -1.03560
O817        O  0.54981297  0.94210218  0.95430427    -0.93230
C818        C  0.48108373  0.74326674  0.60653906     1.21230
O819        O  0.58823532  0.84970797  0.55365161    -1.03950
O820        O  0.53032716  0.99685728  0.91253959    -0.91350
O821        O  0.36624983  0.88100575  0.91449456    -0.90960
O822        O  0.47835037  0.82330394  0.91933200    -0.90980
Mn823      Mn  0.56191842  0.69880407  0.49335039     1.47860
O824        O  0.62564372  0.91630312  0.88332357    -0.79450
C825        C  0.49657809  0.73935790  0.90337657     1.14280
O826        O  0.61120408  0.70878645  0.62714769    -0.78190
O827        O  0.64198497  0.73295036  0.88187980    -0.77800
Mn828      Mn  0.45333457  0.66791270  0.51737919     1.51060
O829        O  0.37367302  0.86927135  0.55795992    -0.90150
O830        O  0.62414977  0.77032140  0.95394890    -0.97680
O831        O  0.42937271  0.93193539  0.96915564    -0.92690
C832        C  0.62050455  0.76691123  0.90295426     1.12070
C833        C  0.53512121  0.73149161  0.78940027    -0.10310
C834        C  0.57118693  0.78652206  0.81421556     0.05880
C835        C  0.59282814  0.83729099  0.77912492    -0.04080
C836        C  0.57336571  0.83313310  0.72518029    -0.08530
C837        C  0.54877865  0.77963411  0.69682468     0.05000
C838        C  0.52346042  0.72854191  0.73191919    -0.03560
Br839      Br  0.45101038  0.66362632  0.71312849    -0.03250
H840        H  0.51135184  0.69095464  0.81536321     0.08910
H841        H  0.58082160  0.87372246  0.70719652     0.06930
Br842      Br  0.67018669  0.90467083  0.78421894    -0.03680
C843        C  0.51202290  0.92419116  0.71927097    -0.10310
C844        C  0.45660953  0.88573989  0.69360154     0.05880
C845        C  0.41133230  0.84429243  0.73478511    -0.04080
C846        C  0.41658534  0.84921253  0.79506679    -0.08530
C847        C  0.46736342  0.89443114  0.82081964     0.05000
C848        C  0.51776138  0.92864078  0.77973460    -0.03560
Br849      Br  0.59879145  0.98137230  0.79811413    -0.03250
H850        H  0.55190684  0.95331883  0.69224084     0.08910
H851        H  0.37875002  0.81757150  0.82246270     0.06930
Br852      Br  0.67538264  0.77501865  0.71584597    -0.03680
C853        C  0.79851092  0.23393141  0.38964016    -0.03650
C854        C  0.88547851  0.11131039  0.13159757    -0.03650
C855        C  0.78318720  0.22236054  0.12507139    -0.03650
C856        C  0.90479434  0.12237703  0.37842521    -0.03650
O857        O  0.71856436  0.12390136  0.09526307    -0.89340
C858        C  0.85636620  0.28072983  0.41323758     1.10700
O859        O  0.71153282  0.06811927  0.00259019    -1.37150
O860        O  0.83358948  0.29718540  0.04822346    -0.90820
O861        O  0.80969833  0.17069676  0.05823645    -0.91490
O862        O  0.75658478  0.05059307  0.12766307    -0.80310
O863        O  0.93321140  0.07957387  0.05535571    -1.02400
C864        C  0.92429334  0.18264548  0.10377236     1.20750
O865        O  0.69698722  0.30042243  0.00246772    -1.37290
Mn866      Mn  0.67760555  0.00905592  0.43401422     1.82060
O867        O  0.95431005  0.23841186  0.12314126    -0.79380
O868        O  0.88643671  0.26673764  0.08673660    -0.88780
C869        C  0.92624347  0.19266229  0.40298460     1.11830
C870        C  0.84037871  0.27109484  0.09051034     1.06560
O871        O  0.77566105  0.05252765  0.38079272    -0.80320
O872        O  0.94264626  0.31463719  0.99931079    -1.34020
O873        O  0.82397762  0.06238447  0.45421919    -0.99530
C874        C  0.73400762  0.23350979  0.10002471     1.05270
Mn875      Mn  0.89057994  0.22340041  0.01170017     1.48570
O876        O  0.74373247  0.28548428  0.09763992    -0.88730
Mn877      Mn  0.81206030  0.11638566  0.99734142     1.49560
O878        O  0.76115984  0.17502165  0.47579519    -0.92610
C879        C  0.92186686  0.07412557  0.10595116     1.18460
C880        C  0.78086930  0.17912300  0.42504620     1.10520
Mn881      Mn  0.66668149  0.00191191  0.07128473     1.80970
O882        O  0.91870605  0.19046732  0.45333944    -0.97790
Mn883      Mn  0.67929562  0.12399177  0.01794263     1.49260
C884        C  0.77213389  0.16578682  0.09760182     1.07040
Mn885      Mn  0.65044136  0.20183060  0.99566754     1.49930
C886        C  0.75350133  0.24975323  0.41809052     1.09950
O887        O  0.81538346  0.07149894  0.05640999    -1.03560
O888        O  0.88314679  0.27544563  0.45430327    -0.93230
C889        C  0.81442156  0.07659305  0.10653885     1.21230
O890        O  0.92157002  0.18303458  0.05365077    -1.03950
O891        O  0.86365333  0.33019638  0.41254025    -0.91350
O892        O  0.69957921  0.21434362  0.41449676    -0.90960
O893        O  0.81168190  0.15664294  0.41933368    -0.90980
Mn894      Mn  0.89525901  0.03213209  0.99334951     1.47860
O895        O  0.95897329  0.24964166  0.38332282    -0.79450
C896        C  0.82991016  0.07269637  0.40337771     1.14280
O897        O  0.94454314  0.04211392  0.12714771    -0.78190
O898        O  0.97531735  0.06628918  0.38188000    -0.77800
Mn899      Mn  0.78667497  0.00124033  0.01737864     1.51060
O900        O  0.70700882  0.20259875  0.05796071    -0.90150
O901        O  0.95748201  0.10366026  0.45394902    -0.97680
O902        O  0.76270248  0.26527386  0.46915749    -0.92690
C903        C  0.95383661  0.10024992  0.40295446     1.12070
C904        C  0.86845440  0.06482475  0.28940255    -0.10310
C905        C  0.90451616  0.11985727  0.31421615     0.05880
C906        C  0.92615262  0.17062407  0.27912369    -0.04080
C907        C  0.90669087  0.16646149  0.22517820    -0.08530
C908        C  0.88211282  0.11296214  0.19682409     0.05000
C909        C  0.85679633  0.06187145  0.23192045    -0.03560
Br910      Br  0.78434929  0.99695286  0.21312868    -0.03250
H911        H  0.84468632  0.02428874  0.31536687     0.08910
H912        H  0.91414085  0.20704766  0.20719174     0.06930
Br913      Br  0.00350962  0.23800575  0.28421475    -0.03680
C914        C  0.84535727  0.25752430  0.21927248    -0.10310
C915        C  0.78994462  0.21907262  0.19360251     0.05880
C916        C  0.74466465  0.17762939  0.23478637    -0.04080
C917        C  0.74991557  0.18255206  0.29506811    -0.08530
C918        C  0.80069453  0.22776933  0.32082117     0.05000
C919        C  0.85109387  0.26197691  0.27973631    -0.03560
Br920      Br  0.93212300  0.31471262  0.29811564    -0.03250
H921        H  0.88524201  0.28664991  0.19224228     0.08910
H922        H  0.71207827  0.15091370  0.32246374     0.06930
Br923      Br  0.00871347  0.10835810  0.21584621    -0.03680
C924        C  0.79851483  0.23392636  0.88963999    -0.03650
C925        C  0.88547533  0.11131609  0.63159810    -0.03650
C926        C  0.78318380  0.22236501  0.62507169    -0.03650
C927        C  0.90479849  0.12237228  0.87842490    -0.03650
O928        O  0.71856075  0.12390655  0.59526237    -0.89340
C929        C  0.85637015  0.28072481  0.91323730     1.10700
O930        O  0.71152888  0.06812467  0.50259038    -1.37150
O931        O  0.83358543  0.29719065  0.54822408    -0.90820
O932        O  0.80969473  0.17070234  0.55823572    -0.91490
O933        O  0.75658100  0.05059855  0.62766405    -0.80310
O934        O  0.93320747  0.07957975  0.55535563    -1.02400
C935        C  0.92428940  0.18265122  0.60377308     1.20750
O936        O  0.69698328  0.30042779  0.50246830    -1.37290
Mn937      Mn  0.67760932  0.00905066  0.93401395     1.82060
O938        O  0.95430566  0.23841763  0.62314186    -0.79380
O939        O  0.88643322  0.26674333  0.58673643    -0.88780
C940        C  0.92624722  0.19265716  0.90298479     1.11830
C941        C  0.84037498  0.27109997  0.59051065     1.06560
O942        O  0.77566495  0.05252253  0.88079228    -0.80320
O943        O  0.94264250  0.31464271  0.49931111    -1.34020
O944        O  0.82398168  0.06237935  0.95421861    -0.99530
C945        C  0.73400374  0.23351462  0.60002572     1.05270
Mn946      Mn  0.89057651  0.22340598  0.51170030     1.48570
O947        O  0.74372871  0.28548924  0.59764090    -0.88730
Mn948      Mn  0.81205636  0.11639094  0.49734159     1.49560
O949        O  0.76116405  0.17501665  0.97579532    -0.92610
C950        C  0.92186323  0.07413144  0.60595103     1.18460
C951        C  0.78087333  0.17911794  0.92504620     1.10520
Mn952      Mn  0.66667763  0.00191754  0.57128516     1.80970
O953        O  0.91870995  0.19046199  0.95333953    -0.97790
Mn954      Mn  0.67929165  0.12399724  0.51794249     1.49260
C955        C  0.77213031  0.16579200  0.59760110     1.07040
Mn956      Mn  0.65043733  0.20183596  0.49566808     1.49930
C957        C  0.75350521  0.24974795  0.91809020     1.09950
O958        O  0.81537932  0.07150443  0.55641077    -1.03560
O959        O  0.88315086  0.27544068  0.95430302    -0.93230
C960        C  0.81441782  0.07659874  0.60653973     1.21230
O961        O  0.92156613  0.18304014  0.55365143    -1.03950
O962        O  0.86365732  0.33019137  0.91253972    -0.91350
O963        O  0.69958314  0.21433832  0.91449623    -0.90960
O964        O  0.81168579  0.15663777  0.91933358    -0.90980
Mn965      Mn  0.89525492  0.03213734  0.49334986     1.47860
O966        O  0.95897621  0.24963653  0.88332304    -0.79450
C967        C  0.82991417  0.07269133  0.90337715     1.14280
O968        O  0.94453921  0.04211963  0.62714751    -0.78190
O969        O  0.97532104  0.06628379  0.88187963    -0.77800
Mn970      Mn  0.78667096  0.00124559  0.51737940     1.51060
O971        O  0.70700460  0.20260383  0.55796162    -0.90150
O972        O  0.95748623  0.10365510  0.95394875    -0.97680
O973        O  0.76270616  0.26526857  0.96915709    -0.92690
C974        C  0.95384070  0.10024486  0.90295410     1.12070
C975        C  0.86845683  0.06482407  0.78940030    -0.10310
C976        C  0.90452125  0.11985488  0.81421562     0.05880
C977        C  0.92616029  0.17062357  0.77912514    -0.04080
C978        C  0.90669742  0.16646519  0.72518058    -0.08530
C979        C  0.88211249  0.11296648  0.69682478     0.05000
C980        C  0.85679604  0.06187424  0.73191908    -0.03560
Br981      Br  0.78434898  0.99695654  0.71312619    -0.03250
H982        H  0.84468882  0.02428694  0.81536314     0.08910
H983        H  0.91415234  0.20705413  0.70719656     0.06930
Br984      Br  0.00351858  0.23800350  0.78421832    -0.03680
C985        C  0.84535647  0.25752633  0.71927175    -0.10310
C986        C  0.78994319  0.21907460  0.69360247     0.05880
C987        C  0.74466629  0.17762712  0.73478617    -0.04080
C988        C  0.74991958  0.18254689  0.79506790    -0.08530
C989        C  0.80069769  0.22776526  0.82082086     0.05000
C990        C  0.85109532  0.26197572  0.77973544    -0.03560
Br991      Br  0.93212573  0.31470764  0.79811406    -0.03250
H992        H  0.88524014  0.28665399  0.69224134     0.08910
H993        H  0.71208434  0.15090585  0.82246373     0.06930
Br994      Br  0.00871567  0.10835459  0.71584651    -0.03680
C995        C  0.79850503  0.56726460  0.38963964    -0.03650
C996        C  0.88547386  0.44464382  0.13159748    -0.03650
C997        C  0.78318305  0.55569428  0.12507115    -0.03650
C998        C  0.90478964  0.45571082  0.37842491    -0.03650
O999        O  0.71855929  0.45723496  0.09526304    -0.89340
C1000       C  0.85636022  0.61406083  0.41323887     1.10700
O1001       O  0.71152743  0.40145255  0.00258997    -1.37150
O1002       O  0.83358846  0.63051924  0.04822388    -0.90820
O1003       O  0.80969255  0.50403075  0.05823463    -0.91490
O1004       O  0.75658012  0.38392647  0.12766291    -0.80310
O1005       O  0.93320603  0.41290702  0.05535583    -1.02400
C1006       C  0.92429108  0.51597936  0.10377306     1.20750
O1007       O  0.69698716  0.63375584  0.00246749    -1.37290
Mn1008     Mn  0.67760178  0.34238945  0.43401391     1.82060
O1009       O  0.95430945  0.57174549  0.12314252    -0.79380
O1010       O  0.88643301  0.60006949  0.08673903    -0.88780
C1011       C  0.92623884  0.52599574  0.40298478     1.11830
C1012       C  0.84037590  0.60442824  0.09051144     1.06560
O1013       O  0.77565680  0.38586118  0.38079236    -0.80320
O1014       O  0.94264718  0.64797018  0.99931199    -1.34020
O1015       O  0.82397266  0.39571800  0.45421910    -0.99530
C1016       C  0.73400477  0.56684428  0.10002363     1.05270
Mn1017     Mn  0.89057685  0.55673359  0.01170183     1.48570
O1018       O  0.74373055  0.61881893  0.09763884    -0.88730
Mn1019     Mn  0.81205455  0.44971926  0.99734052     1.49560
O1020       O  0.76115278  0.50835416  0.47579380    -0.92610
C1021       C  0.92186173  0.40745854  0.10595123     1.18460
C1022       C  0.78086198  0.51245516  0.42504474     1.10520
Mn1023     Mn  0.66667708  0.33524501  0.07128442     1.80970
O1024       O  0.91870129  0.52380040  0.45333975    -0.97790
Mn1025     Mn  0.67928973  0.45732483  0.01794250     1.49260
C1026       C  0.77212905  0.49912038  0.09760125     1.07040
Mn1027     Mn  0.65043807  0.53516416  0.99566698     1.49930
C1028       C  0.75349654  0.58308744  0.41808939     1.09950
O1029       O  0.81537820  0.40483309  0.05640952    -1.03560
O1030       O  0.88313690  0.60877344  0.45430572    -0.93230
C1031       C  0.81441684  0.40992718  0.10653842     1.21230
O1032       O  0.92156842  0.51636940  0.05365145    -1.03950
O1033       O  0.86365226  0.66352906  0.41254105    -0.91350
O1034       O  0.69957467  0.54767733  0.41449523    -0.90960
O1035       O  0.81167515  0.48997546  0.41933236    -0.90980
Mn1036     Mn  0.89525450  0.36546555  0.99334943     1.47860
O1037       O  0.95897161  0.58297505  0.38332326    -0.79450
C1038       C  0.82990568  0.40602989  0.40337755     1.14280
O1039       O  0.94453827  0.37544692  0.12714749    -0.78190
O1040       O  0.97531329  0.39962331  0.38187994    -0.77800
Mn1041     Mn  0.78667180  0.33457397  0.01737908     1.51060
O1042       O  0.70700588  0.53593310  0.05795966    -0.90150
O1043       O  0.95747657  0.43699397  0.45394886    -0.97680
O1044       O  0.76269594  0.59860698  0.46915673    -0.92690
C1045       C  0.95383192  0.43358375  0.40295422     1.12070
C1046       C  0.86845045  0.39815849  0.28940213    -0.10310
C1047       C  0.90451044  0.45319153  0.31421564     0.05880
C1048       C  0.92614280  0.50395815  0.27912330    -0.04080
C1049       C  0.90667955  0.49979401  0.22517807    -0.08530
C1050       C  0.88210645  0.44629515  0.19682387     0.05000
C1051       C  0.85679205  0.39520468  0.23192004    -0.03560
Br1052     Br  0.78434620  0.33028558  0.21312755    -0.03250
H1053       H  0.84468405  0.35762242  0.31536648     0.08910
H1054       H  0.91412652  0.54037868  0.20719019     0.06930
Br1055     Br  0.00350027  0.57134030  0.28420970    -0.03680
C1056       C  0.84535121  0.59085790  0.21927274    -0.10310
C1057       C  0.78993878  0.55240670  0.19360234     0.05880
C1058       C  0.74465757  0.51096451  0.23478588    -0.04080
C1059       C  0.74990776  0.51588739  0.29506761    -0.08530
C1060       C  0.80068779  0.56110304  0.32082085     0.05000
C1061       C  0.85108733  0.59530982  0.27973650    -0.03560
Br1062     Br  0.93211569  0.64804433  0.29811731    -0.03250
H1063       H  0.88523635  0.61998361  0.19224303     0.08910
H1064       H  0.71206954  0.48425004  0.32246297     0.06930
Br1065     Br  0.00870611  0.44169397  0.21584537    -0.03680
C1066       C  0.79850895  0.56725954  0.88963947    -0.03650
C1067       C  0.88547067  0.44464952  0.63159801    -0.03650
C1068       C  0.78317965  0.55569875  0.62507146    -0.03650
C1069       C  0.90479379  0.45570607  0.87842461    -0.03650
O1070       O  0.71855569  0.45724015  0.59526234    -0.89340
C1071       C  0.85636418  0.61405581  0.91323859     1.10700
O1072       O  0.71152348  0.40145795  0.50259016    -1.37150
O1073       O  0.83358441  0.63052449  0.54822450    -0.90820
O1074       O  0.80968895  0.50403633  0.55823390    -0.91490
O1075       O  0.75657634  0.38393195  0.62766389    -0.80310
O1076       O  0.93320210  0.41291289  0.55535575    -1.02400
C1077       C  0.92428714  0.51598510  0.60377378     1.20750
O1078       O  0.69698322  0.63376120  0.50246808    -1.37290
Mn1079     Mn  0.67760555  0.34238419  0.93401364     1.82060
O1080       O  0.95430506  0.57175126  0.62314312    -0.79380
O1081       O  0.88642952  0.60007518  0.58673886    -0.88780
C1082       C  0.92624259  0.52599060  0.90298497     1.11830
C1083       C  0.84037216  0.60443336  0.59051175     1.06560
O1084       O  0.77566070  0.38585607  0.88079192    -0.80320
O1085       O  0.94264342  0.64797570  0.49931232    -1.34020
O1086       O  0.82397672  0.39571287  0.95421852    -0.99530
C1087       C  0.73400089  0.56684910  0.60002465     1.05270
Mn1088     Mn  0.89057342  0.55673916  0.51170196     1.48570
O1089       O  0.74372679  0.61882388  0.59763982    -0.88730
Mn1090     Mn  0.81205062  0.44972454  0.49734069     1.49560
O1091       O  0.76115700  0.50834917  0.97579392    -0.92610
C1092       C  0.92185810  0.40746441  0.60595110     1.18460
C1093       C  0.78086602  0.51245010  0.92504473     1.10520
Mn1094     Mn  0.66667321  0.33525064  0.57128484     1.80970
O1095       O  0.91870520  0.52379507  0.95333983    -0.97790
Mn1096     Mn  0.67928576  0.45733030  0.51794236     1.49260
C1097       C  0.77212547  0.49912556  0.59760052     1.07040
Mn1098     Mn  0.65043405  0.53516953  0.49566753     1.49930
C1099       C  0.75350043  0.58308217  0.91808907     1.09950
O1100       O  0.81537406  0.40483858  0.55641029    -1.03560
O1101       O  0.88314098  0.60876849  0.95430547    -0.93230
C1102       C  0.81441310  0.40993286  0.60653930     1.21230
O1103       O  0.92156452  0.51637496  0.55365211    -1.03950
O1104       O  0.86365625  0.66352404  0.91254051    -0.91350
O1105       O  0.69957859  0.54767202  0.91449470    -0.90960
O1106       O  0.81167905  0.48997030  0.91933227    -0.90980
Mn1107     Mn  0.89525040  0.36547081  0.49334978     1.47860
O1108       O  0.95897453  0.58296992  0.88332348    -0.79450
C1109       C  0.82990969  0.40602485  0.90337700     1.14280
O1110       O  0.94453434  0.37545263  0.62714729    -0.78190
O1111       O  0.97531699  0.39961791  0.88187958    -0.77800
Mn1112     Mn  0.78666778  0.33457923  0.51737983     1.51060
O1113       O  0.70700166  0.53593818  0.55796057    -0.90150
O1114       O  0.95748079  0.43698880  0.95394858    -0.97680
O1115       O  0.76269962  0.59860169  0.96915632    -0.92690
C1116       C  0.95383601  0.43357869  0.90295385     1.12070
C1117       C  0.86845287  0.39815781  0.78939987    -0.10310
C1118       C  0.90451553  0.45318913  0.81421511     0.05880
C1119       C  0.92615047  0.50395765  0.77912475    -0.04080
C1120       C  0.90668608  0.49979771  0.72518045    -0.08530
C1121       C  0.88210612  0.44629948  0.69682456     0.05000
C1122       C  0.85679176  0.39520747  0.73191866    -0.03560
Br1123     Br  0.78434589  0.33028926  0.71312505    -0.03250
H1124       H  0.84468655  0.35762062  0.81536275     0.08910
H1125       H  0.91413800  0.54038515  0.70719501     0.06930
Br1126     Br  0.00350922  0.57133804  0.78421327    -0.03680
C1127       C  0.84535040  0.59085994  0.71927201    -0.10310
C1128       C  0.78993735  0.55240868  0.69360230     0.05880
C1129       C  0.74465922  0.51096224  0.73478568    -0.04080
C1130       C  0.74991177  0.51588222  0.79506740    -0.08530
C1131       C  0.80069096  0.56109897  0.82082055     0.05000
C1132       C  0.85108878  0.59530863  0.77973564    -0.03560
Br1133     Br  0.93211842  0.64803935  0.79811573    -0.03250
H1134       H  0.88523448  0.61998768  0.69224209     0.08910
H1135       H  0.71207561  0.48424218  0.82246297     0.06930
Br1136     Br  0.00870831  0.44169045  0.71584567    -0.03680
C1137       C  0.79850988  0.90059761  0.38963870    -0.03650
C1138       C  0.88547790  0.77797779  0.13159751    -0.03650
C1139       C  0.78318761  0.88902672  0.12507053    -0.03650
C1140       C  0.90479218  0.78904366  0.37842511    -0.03650
O1141       O  0.71856359  0.79056788  0.09526190    -0.89340
C1142       C  0.85636533  0.94739423  0.41323761     1.10700
O1143       O  0.71153038  0.73478569  0.00258981    -1.37150
O1144       O  0.83359222  0.96385228  0.04822345    -0.90820
O1145       O  0.80969698  0.83736406  0.05823340    -0.91490
O1146       O  0.75658368  0.71726096  0.12766203    -0.80310
O1147       O  0.93320943  0.74624033  0.05535592    -1.02400
C1148       C  0.92429503  0.84931288  0.10377252     1.20750
O1149       O  0.69699042  0.96708914  0.00246760    -1.37290
Mn1150     Mn  0.67760259  0.67572249  0.43401411     1.82060
O1151       O  0.95431287  0.90507908  0.12314154    -0.79380
O1152       O  0.88643750  0.93340308  0.08673784    -0.88780
C1153       C  0.92624261  0.85932886  0.40298489     1.11830
C1154       C  0.84038009  0.93776120  0.09051071     1.06560
O1155       O  0.77565821  0.71919425  0.38079220    -0.80320
O1156       O  0.94265032  0.98130358  0.99931173    -1.34020
O1157       O  0.82397465  0.72905073  0.45421848    -0.99530
C1158       C  0.73400896  0.90017672  0.10002346     1.05270
Mn1159     Mn  0.89058127  0.89006681  0.01170112     1.48570
O1160       O  0.74373432  0.95215120  0.09763904    -0.88730
Mn1161     Mn  0.81205828  0.78305233  0.99733999     1.49560
O1162       O  0.76115619  0.84168657  0.47579279    -0.92610
C1163       C  0.92186529  0.74079241  0.10595135     1.18460
C1164       C  0.78086626  0.84578820  0.42504395     1.10520
Mn1165     Mn  0.66667898  0.66857863  0.07128481     1.80970
O1166       O  0.91870589  0.85713360  0.45333977    -0.97790
Mn1167     Mn  0.67929312  0.79065794  0.01794202     1.49260
C1168       C  0.77213348  0.83245330  0.09760008     1.07040
Mn1169     Mn  0.65044262  0.86849759  0.99566675     1.49930
C1170       C  0.75350150  0.91642074  0.41808880     1.09950
O1171       O  0.81538317  0.73816695  0.05640927    -1.03560
O1172       O  0.88314223  0.94210712  0.45430452    -0.93230
C1173       C  0.81442081  0.74326105  0.10653818     1.21230
O1174       O  0.92157254  0.84970241  0.05365095    -1.03950
O1175       O  0.86365651  0.99686229  0.41254013    -0.91350
O1176       O  0.69957924  0.88101106  0.41449509    -0.90960
O1177       O  0.81167980  0.82330910  0.41933209    -0.90980
Mn1178     Mn  0.89525585  0.69879882  0.99335004     1.47860
O1179       O  0.95897412  0.91630824  0.38332335    -0.79450
C1180       C  0.82990742  0.73936295  0.40337713     1.14280
O1181       O  0.94454135  0.70878074  0.12714789    -0.78190
O1182       O  0.97531461  0.73295575  0.38188017    -0.77800
Mn1183     Mn  0.78667192  0.66790745  0.01737843     1.51060
O1184       O  0.70701057  0.86926627  0.05795902    -0.90150
O1185       O  0.95747888  0.77032656  0.45394918    -0.97680
O1186       O  0.76270236  0.93194068  0.46915605    -0.92690
C1187       C  0.95383379  0.76691629  0.40295463     1.12070
C1188       C  0.86845212  0.73149230  0.28940252    -0.10310
C1189       C  0.90451518  0.78652446  0.31421610     0.05880
C1190       C  0.92615383  0.83729149  0.27912347    -0.04080
C1191       C  0.90669254  0.83312941  0.22517791    -0.08530
C1192       C  0.88211232  0.77962977  0.19682399     0.05000
C1193       C  0.85679403  0.72853913  0.23192057    -0.03560
Br1194     Br  0.78434402  0.66362264  0.21313100    -0.03250
H1195       H  0.84468266  0.69095644  0.31536693     0.08910
H1196       H  0.91414349  0.87371600  0.20719171     0.06930
Br1197     Br  0.00351108  0.90467309  0.28421539    -0.03680
C1198       C  0.84535704  0.92418912  0.21927169    -0.10310
C1199       C  0.78994429  0.88573791  0.19360158     0.05880
C1200       C  0.74466400  0.84429470  0.23478530    -0.04080
C1201       C  0.74991467  0.84921769  0.29506700    -0.08530
C1202       C  0.80069359  0.89443521  0.32081994     0.05000
C1203       C  0.85109327  0.92864196  0.27973546    -0.03560
Br1204     Br  0.93212206  0.98137727  0.29811570    -0.03250
H1205       H  0.88524205  0.95331474  0.19224178     0.08910
H1206       H  0.71207729  0.81757934  0.32246270     0.06930
Br1207     Br  0.00871378  0.77502216  0.21584566    -0.03680
C1208       C  0.79851380  0.90059256  0.88963853    -0.03650
C1209       C  0.88547471  0.77798350  0.63159805    -0.03650
C1210       C  0.78318421  0.88903119  0.62507084    -0.03650
C1211       C  0.90479633  0.78903892  0.87842480    -0.03650
O1212       O  0.71855999  0.79057307  0.59526121    -0.89340
C1213       C  0.85636929  0.94738921  0.91323733     1.10700
O1214       O  0.71152644  0.73479109  0.50259001    -1.37150
O1215       O  0.83358817  0.96385753  0.54822406    -0.90820
O1216       O  0.80969338  0.83736964  0.55823267    -0.91490
O1217       O  0.75657989  0.71726644  0.62766302    -0.80310
O1218       O  0.93320550  0.74624621  0.55535585    -1.02400
C1219       C  0.92429109  0.84931861  0.60377325     1.20750
O1220       O  0.69698648  0.96709450  0.50246819    -1.37290
Mn1221     Mn  0.67760636  0.67571723  0.93401383     1.82060
O1222       O  0.95430847  0.90508485  0.62314215    -0.79380
O1223       O  0.88643401  0.93340877  0.58673768    -0.88780
C1224       C  0.92624636  0.85932372  0.90298507     1.11830
C1225       C  0.84037636  0.93776633  0.59051101     1.06560
O1226       O  0.77566211  0.71918914  0.88079175    -0.80320
O1227       O  0.94264656  0.98130910  0.49931205    -1.34020
O1228       O  0.82397872  0.72904561  0.95421789    -0.99530
C1229       C  0.73400508  0.90018154  0.60002447     1.05270
Mn1230     Mn  0.89057784  0.89007238  0.51170126     1.48570
O1231       O  0.74373056  0.95215616  0.59764002    -0.88730
Mn1232     Mn  0.81205434  0.78305761  0.49734016     1.49560
O1233       O  0.76116041  0.84168158  0.97579291    -0.92610
C1234       C  0.92186166  0.74079828  0.60595122     1.18460
C1235       C  0.78087030  0.84578315  0.92504394     1.10520
Mn1236     Mn  0.66667511  0.66858425  0.57128524     1.80970
O1237       O  0.91870980  0.85712827  0.95333985    -0.97790
Mn1238     Mn  0.67928915  0.79066341  0.51794188     1.49260
C1239       C  0.77212990  0.83245848  0.59759935     1.07040
Mn1240     Mn  0.65043860  0.86850295  0.49566730     1.49930
C1241       C  0.75350538  0.91641547  0.91808848     1.09950
O1242       O  0.81537903  0.73817243  0.55641005    -1.03560
O1243       O  0.88314630  0.94210218  0.95430427    -0.93230
C1244       C  0.81441706  0.74326674  0.60653906     1.21230
O1245       O  0.92156865  0.84970797  0.55365161    -1.03950
O1246       O  0.86366050  0.99685728  0.91253959    -0.91350
O1247       O  0.69958317  0.88100575  0.91449456    -0.90960
O1248       O  0.81168370  0.82330394  0.91933200    -0.90980
Mn1249     Mn  0.89525175  0.69880407  0.49335039     1.47860
O1250       O  0.95897705  0.91630312  0.88332357    -0.79450
C1251       C  0.82991143  0.73935790  0.90337657     1.14280
O1252       O  0.94453742  0.70878645  0.62714769    -0.78190
O1253       O  0.97531830  0.73295036  0.88187980    -0.77800
Mn1254     Mn  0.78666790  0.66791270  0.51737919     1.51060
O1255       O  0.70700635  0.86927135  0.55795992    -0.90150
O1256       O  0.95748310  0.77032140  0.95394890    -0.97680
O1257       O  0.76270605  0.93193539  0.96915564    -0.92690
C1258       C  0.95383788  0.76691123  0.90295426     1.12070
C1259       C  0.86845455  0.73149161  0.78940027    -0.10310
C1260       C  0.90452027  0.78652206  0.81421556     0.05880
C1261       C  0.92616147  0.83729099  0.77912492    -0.04080
C1262       C  0.90669904  0.83313310  0.72518029    -0.08530
C1263       C  0.88211198  0.77963411  0.69682468     0.05000
C1264       C  0.85679375  0.72854191  0.73191919    -0.03560
Br1265     Br  0.78434372  0.66362632  0.71312849    -0.03250
H1266       H  0.84468517  0.69095464  0.81536321     0.08910
H1267       H  0.91415493  0.87372246  0.70719652     0.06930
Br1268     Br  0.00352002  0.90467083  0.78421894    -0.03680
C1269       C  0.84535623  0.92419116  0.71927097    -0.10310
C1270       C  0.78994286  0.88573989  0.69360154     0.05880
C1271       C  0.74466564  0.84429243  0.73478511    -0.04080
C1272       C  0.74991868  0.84921253  0.79506679    -0.08530
C1273       C  0.80069675  0.89443114  0.82081964     0.05000
C1274       C  0.85109472  0.92864078  0.77973460    -0.03560
Br1275     Br  0.93212479  0.98137230  0.79811413    -0.03250
H1276       H  0.88524018  0.95331883  0.69224084     0.08910
H1277       H  0.71208336  0.81757150  0.82246270     0.06930
Br1278     Br  0.00871598  0.77501865  0.71584597    -0.03680
loop_ 
_geom_bond_atom_site_label_1 
_geom_bond_atom_site_label_2 
_geom_bond_distance 
_geom_bond_site_symmetry_2 
_ccdc_geom_bond_type 
C1           C28   1.494       .  S
C1           C66   1.629       .  S
C1            C6   1.490       .  S
C1           C34   1.529       .  S
C2           C37   1.694       .  S
C2           C56   1.535       .  S
C2           C12   1.708       .  S
C2           C27   1.740       .  S
C3           C22   1.558       .  S
C3           C63   1.635       .  S
C3           C18   1.544       .  S
C3           C32   1.511       .  S
C4           C44   1.738       .  S
C4           C53   1.512       .  S
C4           C17   1.737       .  S
C4           C51   1.735       .  S
O5           C32   1.243       .  A
O5          Mn31   2.115       .  S
C6           O39   1.206       .  A
C6           O36   1.252       .  A
O7          Mn25   2.196   1_554  S
O7          Mn29   2.162       .  S
O7          Mn31   2.029       .  S
O7          Mn85   2.129   1_554  S
O8           C18   1.267       .  A
O8         Mn184   2.057   1_554  S
O9           C32   1.255       .  A
O9          Mn25   2.042   1_554  S
O10          C37   1.334       .  A
O10         Mn29   2.438       .  S
O11         Mn42   1.879   1_554  S
O11        Mn457   1.905       .  S
O11          C27   1.201       .  S
C12          O15   1.348       .  A
C12          O38   1.184       .  S
O13         Mn33   2.228   1_454  S
O13        Mn227   2.151   1_554  S
O13        Mn189   2.030       .  S
O13        Mn171   2.157       .  S
Mn14         O19   2.424       .  S
Mn14       O1179   2.440   1_445  S
Mn14        O898   2.449   1_455  S
Mn14         O78   2.129       .  S
Mn14        O368   2.151   1_545  S
Mn14       O1227   2.086   1_445  S
O15        Mn597   2.460       .  S
O16          C18   1.231       .  A
O16         Mn23   2.130       .  S
C17          O43   1.345       .  A
C17          O30   1.187       .  S
O19          C44   1.339       .  A
O20         Mn23   2.061   1_556  S
O20        Mn653   2.086       .  S
O20        Mn184   2.205       .  S
O20        Mn597   2.173   1_556  S
O21         Mn96   1.879       .  S
O21        Mn118   1.986       .  S
O21          C44   1.209       .  S
C22          O48   1.269       .  A
C22          O24   1.248       .  A
Mn23        O107   1.989   1_554  S
Mn23         O38   1.897       .  S
Mn23        O101   1.919   1_554  S
O24        Mn189   2.178       .  S
Mn25        O112   2.109       .  S
Mn25         O35   1.842   1_556  S
Mn25         O92   1.879       .  S
O26          C28   1.255       .  A
O26        Mn102   2.013       .  S
C27          O45   1.337       .  A
C28          O41   1.197       .  A
Mn29       O1151   2.460   1_445  S
Mn29        O897   2.482   1_455  S
Mn29        O297   2.157   1_545  S
Mn29       O1156   2.173   1_444  S
O30         Mn94   1.919       .  S
O30        Mn530   1.863       .  S
Mn31         O97   2.013   1_554  S
Mn31        O863   1.905   1_455  S
Mn31        O972   1.990   1_454  S
Mn33         O48   2.092   1_656  S
Mn33        O111   2.160   1_655  S
Mn33        O953   1.863       .  S
Mn33        O890   1.897   1_556  S
C34          O40   1.209       .  A
C34          O50   1.264       .  A
O35         Mn47   1.860       .  S
O35          C37   1.188       .  S
O36         Mn94   1.989       .  S
O38        Mn459   1.897   1_554  S
O39        Mn255   2.126       .  S
O40        Mn104   2.160   1_455  S
O41         Mn96   2.109       .  S
Mn42        O292   2.057   1_546  S
Mn42        O394   2.126   1_545  S
Mn42        O304   2.205   1_545  S
Mn42        O120   1.917       .  S
O43        Mn582   2.440       .  S
O45        Mn455   2.482       .  S
O46          C51   1.342       .  A
O46        Mn440   2.449       .  S
Mn47        O308   2.178   1_545  S
Mn47        O405   1.975   1_544  S
Mn47        O297   2.030   1_545  S
Mn47         O92   1.986   1_554  S
O49        Mn528   1.990       .  S
O49        Mn113   1.917       .  S
O49          C51   1.208       .  S
O50        Mn260   1.975       .  S
C52          C53   1.402       .  A
C52          C57   1.392       .  A
C52          H59   1.078       .  S
C53          C54   1.392       .  A
C54          C55   1.368       .  A
C54         Br61   1.865       .  S
C55          C56   1.396       .  A
C55          H60   1.057       .  S
C56          C57   1.390       .  A
C57         Br58   1.835   1_545  S
C62          C63   1.416       .  A
C62          C67   1.436       .  A
C62          H69   1.076       .  S
C63          C64   1.430       .  A
C64          C65   1.431       .  A
C64        Br923   1.847       .  S
C65          C66   1.399       .  A
C65          H70   1.071       .  S
C66          C67   1.442       .  A
C67         Br68   1.878       .  S
Br71        C490   1.847       .  S
C72          C99   1.494       .  S
C72         C137   1.629       .  S
C72          C77   1.490       .  S
C72         C105   1.529       .  S
C73         C108   1.694       .  S
C73         C127   1.535       .  S
C73          C83   1.708       .  S
C73          C98   1.740       .  S
C74          C93   1.558       .  S
C74         C134   1.635       .  S
C74          C89   1.544       .  S
C74         C103   1.511       .  S
C75         C115   1.738       .  S
C75         C124   1.512       .  S
C75          C88   1.737       .  S
C75         C122   1.735       .  S
O76         C103   1.243       .  A
O76        Mn102   2.115       .  S
C77         O110   1.206       .  A
C77         O107   1.252       .  A
O78         Mn96   2.196       .  S
O78        Mn100   2.162       .  S
O78        Mn102   2.029       .  S
O79          C89   1.267       .  A
O79        Mn255   2.057       .  S
O80         C103   1.255       .  A
O80         Mn96   2.042       .  S
O81         C108   1.334       .  A
O81        Mn100   2.438       .  S
O82        Mn113   1.879       .  S
O82        Mn528   1.905       .  S
O82          C98   1.201       .  S
C83          O86   1.348       .  A
C83         O109   1.184       .  S
O84        Mn104   2.228   1_455  S
O84        Mn156   2.151       .  S
O84        Mn260   2.030       .  S
O84        Mn242   2.157       .  S
Mn85       O1250   2.440   1_445  S
Mn85         O90   2.424       .  S
Mn85        O969   2.449   1_455  S
Mn85        O297   2.151   1_546  S
Mn85       O1156   2.086   1_445  S
O86        Mn668   2.460       .  S
O87          C89   1.231       .  A
O87         Mn94   2.130       .  S
C88         O114   1.345       .  A
C88         O101   1.187       .  S
O90         C115   1.339       .  A
O91        Mn582   2.086       .  S
O91         Mn94   2.061       .  S
O91        Mn255   2.205       .  S
O91        Mn668   2.173       .  S
O92         C115   1.209       .  S
C93         O119   1.269       .  A
C93          O95   1.248       .  A
Mn94        O109   1.897       .  S
O95        Mn260   2.178       .  S
Mn96        O106   1.842       .  S
O97          C99   1.255       .  A
C98         O116   1.336       .  A
C99         O112   1.197       .  A
Mn100      O1222   2.460   1_445  S
Mn100       O968   2.482   1_455  S
Mn100       O368   2.157   1_545  S
Mn100      O1227   2.173   1_445  S
O101       Mn459   1.863       .  S
Mn102       O934   1.905   1_455  S
Mn102       O901   1.990   1_455  S
Mn104       O119   2.092   1_655  S
Mn104       O882   1.863       .  S
Mn104       O961   1.897       .  S
C105        O111   1.209       .  A
C105        O121   1.264       .  A
O106       Mn118   1.860       .  S
O106        C108   1.188       .  S
O109       Mn530   1.897       .  S
O110       Mn184   2.126       .  S
Mn113       O363   2.057   1_545  S
Mn113       O323   2.126   1_545  S
Mn113       O375   2.205   1_545  S
O114       Mn653   2.440       .  S
O116       Mn526   2.482       .  S
O117        C122   1.342       .  A
O117       Mn511   2.449       .  S
Mn118       O379   2.178   1_545  S
Mn118       O334   1.975   1_545  S
Mn118       O368   2.030   1_545  S
O120       Mn457   1.990   1_556  S
O120        C122   1.208       .  S
O121       Mn189   1.975   1_556  S
C123        C124   1.402       .  A
C123        C128   1.392       .  A
C123        H130   1.078       .  S
C124        C125   1.392       .  A
C125        C126   1.368       .  A
C125       Br132   1.865       .  S
C126        C127   1.396       .  A
C126        H131   1.057       .  S
C127        C128   1.390       .  A
C128       Br129   1.835   1_545  S
C133        C134   1.416       .  A
C133        C138   1.436       .  A
C133        H140   1.076       .  S
C134        C135   1.430       .  A
C135        C136   1.431       .  A
C135       Br994   1.847       .  S
C136        C137   1.399       .  A
C136        H141   1.071       .  S
C137        C138   1.442       .  A
C138       Br139   1.878       .  S
Br142       C561   1.847       .  S
C143        C170   1.494       .  S
C143        C208   1.629       .  S
C143        C148   1.490       .  S
C143        C176   1.529       .  S
C144        C179   1.694       .  S
C144        C198   1.535       .  S
C144        C154   1.708       .  S
C144        C169   1.740       .  S
C145        C164   1.558       .  S
C145        C205   1.635       .  S
C145        C160   1.544       .  S
C145        C174   1.511       .  S
C146        C186   1.738       .  S
C146        C195   1.512       .  S
C146        C159   1.737       .  S
C146        C193   1.735       .  S
O147        C174   1.243       .  A
O147       Mn173   2.115       .  S
C148        O181   1.206       .  A
C148        O178   1.252       .  A
O149       Mn227   2.129   1_554  S
O149       Mn167   2.196   1_554  S
O149       Mn171   2.162       .  S
O149       Mn173   2.029       .  S
O150        C160   1.267       .  A
O150       Mn326   2.057   1_554  S
O151        C174   1.255       .  A
O151       Mn167   2.042   1_554  S
O152        C179   1.334       .  A
O152       Mn171   2.438       .  S
O153       Mn184   1.879   1_554  S
O153       Mn599   1.905       .  S
O153        C169   1.201       .  S
C154        O157   1.348       .  A
C154        O180   1.184       .  S
O155       Mn175   2.228   1_454  S
O155       Mn369   2.151   1_554  S
O155       Mn331   2.030       .  S
O155       Mn313   2.157       .  S
Mn156       O895   2.440   1_455  S
Mn156       O161   2.424       .  S
Mn156      O1040   2.449   1_455  S
Mn156       O220   2.129       .  S
Mn156       O943   2.086   1_455  S
O157       Mn739   2.460       .  S
O158        C160   1.231       .  A
O158       Mn165   2.130       .  S
C159        O185   1.345       .  A
C159        O172   1.187       .  S
O161        C186   1.339       .  A
O162       Mn795   2.086       .  S
O162       Mn165   2.061   1_556  S
O162       Mn326   2.205       .  S
O162       Mn739   2.173   1_556  S
O163       Mn238   1.879       .  S
O163       Mn260   1.986       .  S
O163        C186   1.209       .  S
C164        O190   1.269       .  A
C164        O166   1.248       .  A
Mn165       O249   1.989   1_554  S
Mn165       O180   1.897       .  S
Mn165       O243   1.919   1_554  S
O166       Mn331   2.178       .  S
Mn167       O254   2.109       .  S
Mn167       O234   1.879       .  S
Mn167       O177   1.842   1_556  S
O168        C170   1.255       .  A
O168       Mn244   2.013       .  S
C169        O187   1.337       .  A
C170        O183   1.197       .  A
Mn171       O867   2.460   1_455  S
Mn171      O1039   2.482   1_455  S
Mn171       O872   2.173   1_454  S
O172       Mn236   1.919       .  S
O172       Mn672   1.863       .  S
Mn173       O239   2.013   1_554  S
Mn173      O1005   1.905   1_455  S
Mn173      O1114   1.990   1_454  S
Mn175       O253   2.160   1_655  S
Mn175       O190   2.092   1_656  S
Mn175      O1095   1.863       .  S
Mn175      O1032   1.897   1_556  S
C176        O182   1.209       .  A
C176        O192   1.264       .  A
O177       Mn189   1.860       .  S
O177        C179   1.188       .  S
O178       Mn236   1.989       .  S
O180       Mn601   1.897   1_554  S
O181       Mn397   2.126       .  S
O182       Mn246   2.160   1_455  S
O183       Mn238   2.109       .  S
Mn184       O262   1.917       .  S
O185       Mn724   2.440       .  S
O187       Mn597   2.482       .  S
O188        C193   1.342       .  A
O188       Mn582   2.449       .  S
Mn189       O234   1.986   1_554  S
O191       Mn670   1.990       .  S
O191       Mn255   1.917       .  S
O191        C193   1.208       .  S
O192       Mn402   1.975       .  S
C194        C195   1.402       .  A
C194        C199   1.392       .  A
C194        H201   1.078       .  S
C195        C196   1.392       .  A
C196        C197   1.368       .  A
C196       Br203   1.865       .  S
C197        C198   1.396       .  A
C197        H202   1.057       .  S
C198        C199   1.390       .  A
C199       Br200   1.835       .  S
C204        C205   1.416       .  A
C204        C209   1.436       .  A
C204        H211   1.076       .  S
C205        C206   1.430       .  A
C206        C207   1.431       .  A
C206      Br1065   1.847       .  S
C207        C208   1.399       .  A
C207        H212   1.071       .  S
C208        C209   1.442       .  A
C209       Br210   1.878       .  S
Br213       C632   1.847       .  S
C214        C241   1.494       .  S
C214        C279   1.629       .  S
C214        C219   1.490       .  S
C214        C247   1.529       .  S
C215        C250   1.694       .  S
C215        C269   1.535       .  S
C215        C225   1.708       .  S
C215        C240   1.740       .  S
C216        C235   1.558       .  S
C216        C276   1.635       .  S
C216        C231   1.544       .  S
C216        C245   1.511       .  S
C217        C257   1.738       .  S
C217        C266   1.512       .  S
C217        C230   1.737       .  S
C217        C264   1.735       .  S
O218        C245   1.243       .  A
O218       Mn244   2.115       .  S
C219        O252   1.206       .  A
C219        O249   1.252       .  A
O220       Mn238   2.196       .  S
O220       Mn242   2.162       .  S
O220       Mn244   2.029       .  S
O221        C231   1.267       .  A
O221       Mn397   2.057       .  S
O222        C245   1.255       .  A
O222       Mn238   2.042       .  S
O223        C250   1.334       .  A
O223       Mn242   2.438       .  S
O224       Mn255   1.879       .  S
O224       Mn670   1.905       .  S
O224        C240   1.201       .  S
C225        O228   1.348       .  A
C225        O251   1.184       .  S
O226       Mn246   2.228   1_455  S
O226       Mn298   2.151       .  S
O226       Mn402   2.030       .  S
O226       Mn384   2.157       .  S
Mn227       O966   2.440   1_455  S
Mn227       O232   2.424       .  S
Mn227      O1111   2.449   1_455  S
Mn227       O872   2.086   1_455  S
O228       Mn810   2.460       .  S
O229        C231   1.231       .  A
O229       Mn236   2.130       .  S
C230        O256   1.345       .  A
C230        O243   1.187       .  S
O232        C257   1.339       .  A
O233       Mn724   2.086       .  S
O233       Mn236   2.061       .  S
O233       Mn397   2.205       .  S
O233       Mn810   2.173       .  S
O234        C257   1.209       .  S
C235        O261   1.269       .  A
C235        O237   1.248       .  A
Mn236       O251   1.897       .  S
O237       Mn402   2.178       .  S
Mn238       O248   1.842       .  S
O239        C241   1.255       .  A
C240        O258   1.337       .  A
C241        O254   1.197       .  A
Mn242       O938   2.460   1_455  S
Mn242      O1110   2.482   1_455  S
Mn242       O943   2.173   1_455  S
O243       Mn601   1.863       .  S
Mn244      O1076   1.905   1_455  S
Mn244      O1043   1.990   1_455  S
Mn246       O261   2.092   1_655  S
Mn246      O1024   1.863       .  S
Mn246      O1103   1.897       .  S
C247        O253   1.209       .  A
C247        O263   1.264       .  A
O248       Mn260   1.860       .  S
O248        C250   1.188       .  S
O251       Mn672   1.897       .  S
O252       Mn326   2.126       .  S
O256       Mn795   2.440       .  S
O258       Mn668   2.482       .  S
O259        C264   1.342       .  A
O259       Mn653   2.449       .  S
O262       Mn599   1.990   1_556  S
O262        C264   1.208       .  S
O263       Mn331   1.975   1_556  S
C265        C266   1.402       .  A
C265        C270   1.392       .  A
C265        H272   1.078       .  S
C266        C267   1.392       .  A
C267        C268   1.368       .  A
C267       Br274   1.865       .  S
C268        C269   1.396       .  A
C268        H273   1.057       .  S
C269        C270   1.390       .  A
C270       Br271   1.835       .  S
C275        C276   1.416       .  A
C275        C280   1.436       .  A
C275        H282   1.076       .  S
C276        C277   1.430       .  A
C277        C278   1.431       .  A
C277      Br1136   1.847       .  S
C278        C279   1.399       .  A
C278        H283   1.071       .  S
C279        C280   1.442       .  A
C280       Br281   1.878       .  S
Br284       C703   1.847       .  S
C285        C312   1.494       .  S
C285        C350   1.629       .  S
C285        C290   1.490       .  S
C285        C318   1.529       .  S
C286        C321   1.694       .  S
C286        C340   1.535       .  S
C286        C296   1.708       .  S
C286        C311   1.740       .  S
C287        C306   1.558       .  S
C287        C347   1.635       .  S
C287        C302   1.544       .  S
C287        C316   1.511       .  S
C288        C328   1.738       .  S
C288        C337   1.512       .  S
C288        C301   1.737       .  S
C288        C335   1.735       .  S
O289        C316   1.243       .  A
O289       Mn315   2.115       .  S
C290        O323   1.206       .  A
C290        O320   1.252       .  A
O291       Mn369   2.129   1_554  S
O291       Mn309   2.196   1_554  S
O291       Mn313   2.162       .  S
O291       Mn315   2.029       .  S
O292        C302   1.267       .  A
O293        C316   1.255       .  A
O293       Mn309   2.042   1_554  S
O294        C321   1.334       .  A
O294       Mn313   2.438       .  S
O295       Mn326   1.879   1_554  S
O295       Mn741   1.905       .  S
O295        C311   1.201       .  S
C296        O299   1.348       .  A
C296        O322   1.184       .  S
O297       Mn317   2.228   1_454  S
Mn298      O1037   2.440   1_455  S
Mn298       O303   2.424       .  S
Mn298      O1182   2.449   1_455  S
Mn298       O362   2.129       .  S
Mn298      O1085   2.086   1_455  S
O299       Mn455   2.460   1_565  S
O300        C302   1.231       .  A
O300       Mn307   2.130       .  S
C301        O327   1.345       .  A
C301        O314   1.187       .  S
O303        C328   1.339       .  A
O304       Mn511   2.086   1_565  S
O304       Mn307   2.061   1_556  S
O304       Mn455   2.173   1_566  S
O305       Mn380   1.879       .  S
O305       Mn402   1.986       .  S
O305        C328   1.209       .  S
C306        O332   1.269       .  A
C306        O308   1.248       .  A
Mn307       O391   1.989   1_554  S
Mn307       O322   1.897       .  S
Mn307       O385   1.919   1_554  S
Mn309       O396   2.109       .  S
Mn309       O376   1.879       .  S
Mn309       O319   1.842   1_556  S
O310        C312   1.255       .  A
O310       Mn386   2.013       .  S
C311        O329   1.336       .  A
C312        O325   1.197       .  A
Mn313      O1009   2.460   1_455  S
Mn313      O1181   2.482   1_455  S
Mn313      O1014   2.173   1_454  S
O314       Mn378   1.919       .  S
O314       Mn814   1.863       .  S
Mn315       O381   2.013   1_554  S
Mn315      O1147   1.905   1_455  S
Mn315      O1256   1.990   1_454  S
Mn317       O395   2.160   1_655  S
Mn317       O332   2.092   1_656  S
Mn317      O1237   1.863       .  S
Mn317      O1174   1.897   1_556  S
C318        O324   1.209       .  A
C318        O334   1.264       .  A
O319       Mn331   1.860       .  S
O319        C321   1.188       .  S
O320       Mn378   1.989       .  S
O322       Mn743   1.897   1_554  S
O324       Mn388   2.160   1_455  S
O325       Mn380   2.109       .  S
Mn326       O404   1.917       .  S
O327       Mn440   2.440   1_565  S
O329       Mn739   2.482       .  S
O330        C335   1.342       .  A
O330       Mn724   2.449       .  S
Mn331       O376   1.986   1_554  S
O333       Mn812   1.990       .  S
O333       Mn397   1.917       .  S
O333        C335   1.208       .  S
C336        C337   1.402       .  A
C336        C341   1.392       .  A
C336        H343   1.078       .  S
C337        C338   1.392       .  A
C338        C339   1.368       .  A
C338       Br345   1.865       .  S
C339        C340   1.396       .  A
C339        H344   1.057       .  S
C340        C341   1.390       .  A
C341       Br342   1.835       .  S
C346        C347   1.416       .  A
C346        C351   1.436       .  A
C346        H353   1.076       .  S
C347        C348   1.430       .  A
C348        C349   1.431       .  A
C348      Br1207   1.847       .  S
C349        C350   1.399       .  A
C349        H354   1.071       .  S
C350        C351   1.442       .  A
C351       Br352   1.878       .  S
Br355       C774   1.847       .  S
C356        C383   1.494       .  S
C356        C421   1.629       .  S
C356        C361   1.490       .  S
C356        C389   1.529       .  S
C357        C392   1.694       .  S
C357        C411   1.535       .  S
C357        C367   1.708       .  S
C357        C382   1.740       .  S
C358        C377   1.558       .  S
C358        C418   1.635       .  S
C358        C373   1.544       .  S
C358        C387   1.511       .  S
C359        C399   1.738       .  S
C359        C408   1.512       .  S
C359        C372   1.737       .  S
C359        C406   1.735       .  S
O360        C387   1.243       .  A
O360       Mn386   2.115       .  S
C361        O394   1.206       .  A
C361        O391   1.252       .  A
O362       Mn380   2.196       .  S
O362       Mn384   2.162       .  S
O362       Mn386   2.029       .  S
O363        C373   1.267       .  A
O364        C387   1.255       .  A
O364       Mn380   2.042       .  S
O365        C392   1.334       .  A
O365       Mn384   2.438       .  S
O366       Mn397   1.879       .  S
O366       Mn812   1.905       .  S
O366        C382   1.201       .  S
C367        O370   1.348       .  A
C367        O393   1.184       .  S
O368       Mn388   2.228   1_455  S
Mn369      O1108   2.440   1_455  S
Mn369       O374   2.424       .  S
Mn369      O1253   2.449   1_455  S
Mn369      O1014   2.086   1_455  S
O370       Mn526   2.460   1_565  S
O371        C373   1.231       .  A
O371       Mn378   2.130       .  S
C372        O398   1.345       .  A
C372        O385   1.187       .  S
O374        C399   1.339       .  A
O375       Mn440   2.086   1_565  S
O375       Mn378   2.061       .  S
O375       Mn526   2.173   1_565  S
O376        C399   1.209       .  S
C377        O403   1.269       .  A
C377        O379   1.248       .  A
Mn378       O393   1.897       .  S
Mn380       O390   1.842       .  S
O381        C383   1.255       .  A
C382        O400   1.336       .  A
C383        O396   1.197       .  A
Mn384      O1080   2.460   1_455  S
Mn384      O1252   2.482   1_455  S
Mn384      O1085   2.173   1_455  S
O385       Mn743   1.863       .  S
Mn386      O1218   1.905   1_455  S
Mn386      O1185   1.990   1_455  S
Mn388       O403   2.092   1_655  S
Mn388      O1166   1.863       .  S
Mn388      O1245   1.897       .  S
C389        O395   1.209       .  A
C389        O405   1.264       .  A
O390       Mn402   1.860       .  S
O390        C392   1.188       .  S
O393       Mn814   1.897       .  S
O398       Mn511   2.440   1_565  S
O400       Mn810   2.482       .  S
O401        C406   1.342       .  A
O401       Mn795   2.449       .  S
O404       Mn741   1.990   1_556  S
O404        C406   1.208       .  S
C407        C408   1.402       .  A
C407        C412   1.392       .  A
C407        H414   1.078       .  S
C408        C409   1.392       .  A
C409        C410   1.368       .  A
C409       Br416   1.865       .  S
C410        C411   1.396       .  A
C410        H415   1.057       .  S
C411        C412   1.390       .  A
C412       Br413   1.835       .  S
C417        C418   1.416       .  A
C417        C422   1.436       .  A
C417        H424   1.076       .  S
C418        C419   1.430       .  A
C419        C420   1.431       .  A
C419      Br1278   1.847       .  S
C420        C421   1.399       .  A
C420        H425   1.071       .  S
C421        C422   1.442       .  A
C422       Br423   1.878       .  S
Br426       C845   1.847       .  S
C427        C454   1.494       .  S
C427        C492   1.629       .  S
C427        C432   1.490       .  S
C427        C460   1.529       .  S
C428        C463   1.694       .  S
C428        C482   1.535       .  S
C428        C438   1.708       .  S
C428        C453   1.740       .  S
C429        C448   1.558       .  S
C429        C489   1.635       .  S
C429        C444   1.544       .  S
C429        C458   1.511       .  S
C430        C470   1.738       .  S
C430        C479   1.512       .  S
C430        C443   1.737       .  S
C430        C477   1.735       .  S
O431        C458   1.243       .  A
O431       Mn457   2.115       .  S
C432        O465   1.206       .  A
C432        O462   1.252       .  A
O433       Mn511   2.129   1_554  S
O433       Mn451   2.196   1_554  S
O433       Mn455   2.162       .  S
O433       Mn457   2.029       .  S
O434        C444   1.267       .  A
O434       Mn610   2.057   1_554  S
O435        C458   1.255       .  A
O435       Mn451   2.042   1_554  S
O436        C463   1.334       .  A
O436       Mn455   2.438       .  S
O437       Mn468   1.879   1_554  S
O437       Mn883   1.905       .  S
O437        C453   1.201       .  S
C438        O441   1.348       .  A
C438        O464   1.184       .  S
O439       Mn459   2.228   1_554  S
O439       Mn653   2.151   1_554  S
O439       Mn615   2.030       .  S
O439       Mn597   2.157       .  S
Mn440       O445   2.424       .  S
Mn440       O504   2.129       .  S
Mn440       O794   2.151   1_545  S
O441      Mn1023   2.460       .  S
O442        C444   1.231       .  A
O442       Mn449   2.130       .  S
C443        O469   1.345       .  A
C443        O456   1.187       .  S
O445        C470   1.339       .  A
O446      Mn1079   2.086       .  S
O446       Mn449   2.061   1_556  S
O446       Mn610   2.205       .  S
O446      Mn1023   2.173   1_556  S
O447       Mn522   1.879       .  S
O447       Mn544   1.986       .  S
O447        C470   1.209       .  S
C448        O474   1.269       .  A
C448        O450   1.248       .  A
Mn449       O533   1.989   1_554  S
Mn449       O464   1.897       .  S
Mn449       O527   1.919   1_554  S
O450       Mn615   2.178       .  S
Mn451       O538   2.109       .  S
Mn451       O518   1.879       .  S
Mn451       O461   1.842   1_556  S
O452        C454   1.255       .  A
O452       Mn528   2.013       .  S
C453        O471   1.337       .  A
C454        O467   1.197       .  A
Mn455       O723   2.157   1_545  S
O456       Mn520   1.919       .  S
O456       Mn956   1.863       .  S
Mn457       O523   2.013   1_554  S
Mn459       O537   2.160       .  S
Mn459       O474   2.092   1_556  S
C460        O466   1.209       .  A
C460        O476   1.264       .  A
O461       Mn473   1.860       .  S
O461        C463   1.188       .  S
O462       Mn520   1.989       .  S
O464       Mn885   1.897   1_554  S
O465       Mn681   2.126       .  S
O466       Mn530   2.160       .  S
O467       Mn522   2.109       .  S
Mn468       O718   2.057   1_546  S
Mn468       O820   2.126   1_545  S
Mn468       O730   2.205   1_545  S
Mn468       O546   1.917       .  S
O469      Mn1008   2.440       .  S
O471       Mn881   2.482       .  S
O472        C477   1.342       .  A
O472       Mn866   2.449       .  S
Mn473       O734   2.178   1_545  S
Mn473       O831   1.975   1_544  S
Mn473       O723   2.030   1_545  S
Mn473       O518   1.986   1_554  S
O475       Mn954   1.990       .  S
O475       Mn539   1.917       .  S
O475        C477   1.208       .  S
O476       Mn686   1.975       .  S
C478        C479   1.402       .  A
C478        C483   1.392       .  A
C478        H485   1.078       .  S
C479        C480   1.392       .  A
C480        C481   1.368       .  A
C480       Br487   1.865       .  S
C481        C482   1.396       .  A
C481        H486   1.057       .  S
C482        C483   1.390       .  A
C483       Br484   1.835   1_545  S
C488        C489   1.416       .  A
C488        C493   1.436       .  A
C488        H495   1.076       .  S
C489        C490   1.430       .  A
C490        C491   1.431       .  A
C491        C492   1.399       .  A
C491        H496   1.071       .  S
C492        C493   1.442       .  A
C493       Br494   1.878       .  S
Br497       C916   1.847       .  S
C498        C525   1.494       .  S
C498        C563   1.629       .  S
C498        C503   1.490       .  S
C498        C531   1.529       .  S
C499        C534   1.694       .  S
C499        C553   1.535       .  S
C499        C509   1.708       .  S
C499        C524   1.740       .  S
C500        C519   1.558       .  S
C500        C560   1.635       .  S
C500        C515   1.544       .  S
C500        C529   1.511       .  S
C501        C541   1.738       .  S
C501        C550   1.512       .  S
C501        C514   1.737       .  S
C501        C548   1.735       .  S
O502        C529   1.243       .  A
O502       Mn528   2.115       .  S
C503        O536   1.206       .  A
C503        O533   1.252       .  A
O504       Mn522   2.196       .  S
O504       Mn526   2.162       .  S
O504       Mn528   2.029       .  S
O505        C515   1.267       .  A
O505       Mn681   2.057       .  S
O506        C529   1.255       .  A
O506       Mn522   2.042       .  S
O507        C534   1.334       .  A
O507       Mn526   2.438       .  S
O508       Mn539   1.879       .  S
O508       Mn954   1.905       .  S
O508        C524   1.201       .  S
C509        O512   1.348       .  A
C509        O535   1.184       .  S
O510       Mn530   2.228       .  S
O510       Mn582   2.151       .  S
O510       Mn686   2.030       .  S
O510       Mn668   2.157       .  S
Mn511       O516   2.424       .  S
Mn511       O723   2.151   1_546  S
O512      Mn1094   2.460       .  S
O513        C515   1.231       .  A
O513       Mn520   2.130       .  S
C514        O540   1.345       .  A
C514        O527   1.187       .  S
O516        C541   1.339       .  A
O517      Mn1008   2.086       .  S
O517       Mn520   2.061       .  S
O517       Mn681   2.205       .  S
O517      Mn1094   2.173       .  S
O518        C541   1.209       .  S
C519        O545   1.269       .  A
C519        O521   1.248       .  A
Mn520       O535   1.897       .  S
O521       Mn686   2.178       .  S
Mn522       O532   1.842       .  S
O523        C525   1.255       .  A
C524        O542   1.336       .  A
C525        O538   1.197       .  A
Mn526       O794   2.157   1_545  S
O527       Mn885   1.863       .  S
Mn530       O545   2.092       .  S
C531        O537   1.209       .  A
C531        O547   1.264       .  A
O532       Mn544   1.860       .  S
O532        C534   1.188       .  S
O535       Mn956   1.897       .  S
O536       Mn610   2.126       .  S
Mn539       O789   2.057   1_545  S
Mn539       O749   2.126   1_545  S
Mn539       O801   2.205   1_545  S
O540      Mn1079   2.440       .  S
O542       Mn952   2.482       .  S
O543        C548   1.342       .  A
O543       Mn937   2.449       .  S
Mn544       O805   2.178   1_545  S
Mn544       O760   1.975   1_545  S
Mn544       O794   2.030   1_545  S
O546       Mn883   1.990   1_556  S
O546        C548   1.208       .  S
O547       Mn615   1.975   1_556  S
C549        C550   1.402       .  A
C549        C554   1.392       .  A
C549        H556   1.078       .  S
C550        C551   1.392       .  A
C551        C552   1.368       .  A
C551       Br558   1.865       .  S
C552        C553   1.396       .  A
C552        H557   1.057       .  S
C553        C554   1.390       .  A
C554       Br555   1.835   1_545  S
C559        C560   1.416       .  A
C559        C564   1.436       .  A
C559        H566   1.076       .  S
C560        C561   1.430       .  A
C561        C562   1.431       .  A
C562        C563   1.399       .  A
C562        H567   1.071       .  S
C563        C564   1.442       .  A
C564       Br565   1.878       .  S
Br568       C987   1.847       .  S
C569        C596   1.494       .  S
C569        C634   1.629       .  S
C569        C574   1.490       .  S
C569        C602   1.529       .  S
C570        C605   1.694       .  S
C570        C624   1.535       .  S
C570        C580   1.708       .  S
C570        C595   1.740       .  S
C571        C590   1.558       .  S
C571        C631   1.635       .  S
C571        C586   1.544       .  S
C571        C600   1.511       .  S
C572        C612   1.738       .  S
C572        C621   1.512       .  S
C572        C585   1.737       .  S
C572        C619   1.735       .  S
O573        C600   1.243       .  A
O573       Mn599   2.115       .  S
C574        O607   1.206       .  A
C574        O604   1.252       .  A
O575       Mn653   2.129   1_554  S
O575       Mn593   2.196   1_554  S
O575       Mn597   2.162       .  S
O575       Mn599   2.029       .  S
O576        C586   1.267       .  A
O576       Mn752   2.057   1_554  S
O577        C600   1.255       .  A
O577       Mn593   2.042   1_554  S
O578        C605   1.334       .  A
O578       Mn597   2.438       .  S
O579       Mn610   1.879   1_554  S
O579      Mn1025   1.905       .  S
O579        C595   1.201       .  S
C580        O583   1.348       .  A
C580        O606   1.184       .  S
O581       Mn601   2.228   1_554  S
O581       Mn795   2.151   1_554  S
O581       Mn757   2.030       .  S
O581       Mn739   2.157       .  S
Mn582       O587   2.424       .  S
Mn582       O646   2.129       .  S
O583      Mn1165   2.460       .  S
O584        C586   1.231       .  A
O584       Mn591   2.130       .  S
C585        O611   1.345       .  A
C585        O598   1.187       .  S
O587        C612   1.339       .  A
O588      Mn1221   2.086       .  S
O588       Mn591   2.061   1_556  S
O588       Mn752   2.205       .  S
O588      Mn1165   2.173   1_556  S
O589       Mn664   1.879       .  S
O589       Mn686   1.986       .  S
O589        C612   1.209       .  S
C590        O616   1.269       .  A
C590        O592   1.248       .  A
Mn591       O675   1.989   1_554  S
Mn591       O606   1.897       .  S
Mn591       O669   1.919   1_554  S
O592       Mn757   2.178       .  S
Mn593       O680   2.109       .  S
Mn593       O660   1.879       .  S
Mn593       O603   1.842   1_556  S
O594        C596   1.255       .  A
O594       Mn670   2.013       .  S
C595        O613   1.337       .  A
C596        O609   1.197       .  A
O598       Mn662   1.919       .  S
O598      Mn1098   1.863       .  S
Mn599       O665   2.013   1_554  S
Mn601       O679   2.160       .  S
Mn601       O616   2.092   1_556  S
C602        O608   1.209       .  A
C602        O618   1.264       .  A
O603       Mn615   1.860       .  S
O603        C605   1.188       .  S
O604       Mn662   1.989       .  S
O606      Mn1027   1.897   1_554  S
O607       Mn823   2.126       .  S
O608       Mn672   2.160       .  S
O609       Mn664   2.109       .  S
Mn610       O688   1.917       .  S
O611      Mn1150   2.440       .  S
O613      Mn1023   2.482       .  S
O614        C619   1.342       .  A
O614      Mn1008   2.449       .  S
Mn615       O660   1.986   1_554  S
O617      Mn1096   1.990       .  S
O617       Mn681   1.917       .  S
O617        C619   1.208       .  S
O618       Mn828   1.975       .  S
C620        C621   1.402       .  A
C620        C625   1.392       .  A
C620        H627   1.078       .  S
C621        C622   1.392       .  A
C622        C623   1.368       .  A
C622       Br629   1.865       .  S
C623        C624   1.396       .  A
C623        H628   1.057       .  S
C624        C625   1.390       .  A
C625       Br626   1.835       .  S
C630        C631   1.416       .  A
C630        C635   1.436       .  A
C630        H637   1.076       .  S
C631        C632   1.430       .  A
C632        C633   1.431       .  A
C633        C634   1.399       .  A
C633        H638   1.071       .  S
C634        C635   1.442       .  A
C635       Br636   1.878       .  S
Br639      C1058   1.847       .  S
C640        C667   1.494       .  S
C640        C705   1.629       .  S
C640        C645   1.490       .  S
C640        C673   1.529       .  S
C641        C676   1.694       .  S
C641        C695   1.535       .  S
C641        C651   1.708       .  S
C641        C666   1.740       .  S
C642        C661   1.558       .  S
C642        C702   1.635       .  S
C642        C657   1.544       .  S
C642        C671   1.511       .  S
C643        C683   1.738       .  S
C643        C692   1.512       .  S
C643        C656   1.737       .  S
C643        C690   1.735       .  S
O644        C671   1.243       .  A
O644       Mn670   2.115       .  S
C645        O678   1.206       .  A
C645        O675   1.252       .  A
O646       Mn664   2.196       .  S
O646       Mn668   2.162       .  S
O646       Mn670   2.029       .  S
O647        C657   1.267       .  A
O647       Mn823   2.057       .  S
O648        C671   1.255       .  A
O648       Mn664   2.042       .  S
O649        C676   1.334       .  A
O649       Mn668   2.438       .  S
O650       Mn681   1.879       .  S
O650      Mn1096   1.905       .  S
O650        C666   1.201       .  S
C651        O654   1.348       .  A
C651        O677   1.184       .  S
O652       Mn672   2.228       .  S
O652       Mn724   2.151       .  S
O652       Mn828   2.030       .  S
O652       Mn810   2.157       .  S
Mn653       O658   2.424       .  S
O654      Mn1236   2.460       .  S
O655        C657   1.231       .  A
O655       Mn662   2.130       .  S
C656        O682   1.345       .  A
C656        O669   1.187       .  S
O658        C683   1.339       .  A
O659      Mn1150   2.086       .  S
O659       Mn662   2.061       .  S
O659       Mn823   2.205       .  S
O659      Mn1236   2.173       .  S
O660        C683   1.209       .  S
C661        O687   1.269       .  A
C661        O663   1.248       .  A
Mn662       O677   1.897       .  S
O663       Mn828   2.178       .  S
Mn664       O674   1.842       .  S
O665        C667   1.255       .  A
C666        O684   1.337       .  A
C667        O680   1.197       .  A
O669      Mn1027   1.863       .  S
Mn672       O687   2.092       .  S
C673        O679   1.209       .  A
C673        O689   1.264       .  A
O674       Mn686   1.860       .  S
O674        C676   1.188       .  S
O677      Mn1098   1.897       .  S
O678       Mn752   2.126       .  S
O682      Mn1221   2.440       .  S
O684      Mn1094   2.482       .  S
O685        C690   1.342       .  A
O685      Mn1079   2.449       .  S
O688      Mn1025   1.990   1_556  S
O688        C690   1.208       .  S
O689       Mn757   1.975   1_556  S
C691        C692   1.402       .  A
C691        C696   1.392       .  A
C691        H698   1.078       .  S
C692        C693   1.392       .  A
C693        C694   1.368       .  A
C693       Br700   1.865       .  S
C694        C695   1.396       .  A
C694        H699   1.057       .  S
C695        C696   1.390       .  A
C696       Br697   1.835       .  S
C701        C702   1.416       .  A
C701        C706   1.436       .  A
C701        H708   1.076       .  S
C702        C703   1.430       .  A
C703        C704   1.431       .  A
C704        C705   1.399       .  A
C704        H709   1.071       .  S
C705        C706   1.442       .  A
C706       Br707   1.878       .  S
Br710      C1129   1.847       .  S
C711        C738   1.494       .  S
C711        C776   1.629       .  S
C711        C716   1.490       .  S
C711        C744   1.529       .  S
C712        C747   1.694       .  S
C712        C766   1.535       .  S
C712        C722   1.708       .  S
C712        C737   1.740       .  S
C713        C732   1.558       .  S
C713        C773   1.635       .  S
C713        C728   1.544       .  S
C713        C742   1.511       .  S
C714        C754   1.738       .  S
C714        C763   1.512       .  S
C714        C727   1.737       .  S
C714        C761   1.735       .  S
O715        C742   1.243       .  A
O715       Mn741   2.115       .  S
C716        O749   1.206       .  A
C716        O746   1.252       .  A
O717       Mn795   2.129   1_554  S
O717       Mn735   2.196   1_554  S
O717       Mn739   2.162       .  S
O717       Mn741   2.029       .  S
O718        C728   1.267       .  A
O719        C742   1.255       .  A
O719       Mn735   2.042   1_554  S
O720        C747   1.334       .  A
O720       Mn739   2.438       .  S
O721       Mn752   1.879   1_554  S
O721      Mn1167   1.905       .  S
O721        C737   1.201       .  S
C722        O725   1.348       .  A
C722        O748   1.184       .  S
O723       Mn743   2.228   1_554  S
Mn724       O729   2.424       .  S
Mn724       O788   2.129       .  S
O725       Mn881   2.460   1_565  S
O726        C728   1.231       .  A
O726       Mn733   2.130       .  S
C727        O753   1.345       .  A
C727        O740   1.187       .  S
O729        C754   1.339       .  A
O730       Mn937   2.086   1_565  S
O730       Mn733   2.061   1_556  S
O730       Mn881   2.173   1_566  S
O731       Mn806   1.879       .  S
O731       Mn828   1.986       .  S
O731        C754   1.209       .  S
C732        O758   1.269       .  A
C732        O734   1.248       .  A
Mn733       O817   1.989   1_554  S
Mn733       O748   1.897       .  S
Mn733       O811   1.919   1_554  S
Mn735       O822   2.109       .  S
Mn735       O802   1.879       .  S
Mn735       O745   1.842   1_556  S
O736        C738   1.255       .  A
O736       Mn812   2.013       .  S
C737        O755   1.336       .  A
C738        O751   1.197       .  A
O740       Mn804   1.919       .  S
O740      Mn1240   1.863       .  S
Mn741       O807   2.013   1_554  S
Mn743       O821   2.160       .  S
Mn743       O758   2.092   1_556  S
C744        O750   1.209       .  A
C744        O760   1.264       .  A
O745       Mn757   1.860       .  S
O745        C747   1.188       .  S
O746       Mn804   1.989       .  S
O748      Mn1169   1.897   1_554  S
O750       Mn814   2.160       .  S
O751       Mn806   2.109       .  S
Mn752       O830   1.917       .  S
O753       Mn866   2.440   1_565  S
O755      Mn1165   2.482       .  S
O756        C761   1.342       .  A
O756      Mn1150   2.449       .  S
Mn757       O802   1.986   1_554  S
O759      Mn1238   1.990       .  S
O759       Mn823   1.917       .  S
O759        C761   1.208       .  S
C762        C763   1.402       .  A
C762        C767   1.392       .  A
C762        H769   1.078       .  S
C763        C764   1.392       .  A
C764        C765   1.368       .  A
C764       Br771   1.865       .  S
C765        C766   1.396       .  A
C765        H770   1.057       .  S
C766        C767   1.390       .  A
C767       Br768   1.835       .  S
C772        C773   1.416       .  A
C772        C777   1.436       .  A
C772        H779   1.076       .  S
C773        C774   1.430       .  A
C774        C775   1.431       .  A
C775        C776   1.399       .  A
C775        H780   1.071       .  S
C776        C777   1.442       .  A
C777       Br778   1.878       .  S
Br781      C1200   1.847       .  S
C782        C809   1.494       .  S
C782        C847   1.629       .  S
C782        C787   1.490       .  S
C782        C815   1.529       .  S
C783        C818   1.694       .  S
C783        C837   1.535       .  S
C783        C793   1.708       .  S
C783        C808   1.740       .  S
C784        C803   1.558       .  S
C784        C844   1.635       .  S
C784        C799   1.544       .  S
C784        C813   1.511       .  S
C785        C825   1.738       .  S
C785        C834   1.512       .  S
C785        C798   1.737       .  S
C785        C832   1.735       .  S
O786        C813   1.243       .  A
O786       Mn812   2.115       .  S
C787        O820   1.206       .  A
C787        O817   1.252       .  A
O788       Mn806   2.196       .  S
O788       Mn810   2.162       .  S
O788       Mn812   2.029       .  S
O789        C799   1.267       .  A
O790        C813   1.255       .  A
O790       Mn806   2.042       .  S
O791        C818   1.334       .  A
O791       Mn810   2.438       .  S
O792       Mn823   1.879       .  S
O792      Mn1238   1.905       .  S
O792        C808   1.201       .  S
C793        O796   1.348       .  A
C793        O819   1.184       .  S
O794       Mn814   2.228       .  S
Mn795       O800   2.424       .  S
O796       Mn952   2.460   1_565  S
O797        C799   1.231       .  A
O797       Mn804   2.130       .  S
C798        O824   1.345       .  A
C798        O811   1.187       .  S
O800        C825   1.339       .  A
O801       Mn866   2.086   1_565  S
O801       Mn804   2.061       .  S
O801       Mn952   2.173   1_565  S
O802        C825   1.209       .  S
C803        O829   1.269       .  A
C803        O805   1.248       .  A
Mn804       O819   1.897       .  S
Mn806       O816   1.842       .  S
O807        C809   1.255       .  A
C808        O826   1.336       .  A
C809        O822   1.197       .  A
O811      Mn1169   1.863       .  S
Mn814       O829   2.092       .  S
C815        O821   1.209       .  A
C815        O831   1.264       .  A
O816       Mn828   1.860       .  S
O816        C818   1.188       .  S
O819      Mn1240   1.897       .  S
O824       Mn937   2.440   1_565  S
O826      Mn1236   2.482       .  S
O827        C832   1.342       .  A
O827      Mn1221   2.449       .  S
O830      Mn1167   1.990   1_556  S
O830        C832   1.208       .  S
C833        C834   1.402       .  A
C833        C838   1.392       .  A
C833        H840   1.078       .  S
C834        C835   1.392       .  A
C835        C836   1.368       .  A
C835       Br842   1.865       .  S
C836        C837   1.396       .  A
C836        H841   1.057       .  S
C837        C838   1.390       .  A
C838       Br839   1.835       .  S
C843        C844   1.416       .  A
C843        C848   1.436       .  A
C843        H850   1.076       .  S
C844        C845   1.430       .  A
C845        C846   1.431       .  A
C846        C847   1.399       .  A
C846        H851   1.071       .  S
C847        C848   1.442       .  A
C848       Br849   1.878       .  S
Br852      C1271   1.847       .  S
C853        C880   1.494       .  S
C853        C918   1.629       .  S
C853        C858   1.490       .  S
C853        C886   1.529       .  S
C854        C889   1.694       .  S
C854        C908   1.535       .  S
C854        C864   1.708       .  S
C854        C879   1.740       .  S
C855        C874   1.558       .  S
C855        C915   1.635       .  S
C855        C870   1.544       .  S
C855        C884   1.511       .  S
C856        C896   1.738       .  S
C856        C905   1.512       .  S
C856        C869   1.737       .  S
C856        C903   1.735       .  S
O857        C884   1.243       .  A
O857       Mn883   2.115       .  S
C858        O891   1.206       .  A
C858        O888   1.252       .  A
O859       Mn937   2.129   1_554  S
O859       Mn877   2.196   1_554  S
O859       Mn881   2.162       .  S
O859       Mn883   2.029       .  S
O860        C870   1.267       .  A
O860      Mn1036   2.057   1_554  S
O861        C884   1.255       .  A
O861       Mn877   2.042   1_554  S
O862        C889   1.334       .  A
O862       Mn881   2.438       .  S
O863       Mn894   1.879   1_554  S
O863        C879   1.201       .  S
C864        O867   1.348       .  A
C864        O890   1.184       .  S
O865       Mn885   2.228   1_554  S
O865      Mn1079   2.151   1_554  S
O865      Mn1041   2.030       .  S
O865      Mn1023   2.157       .  S
Mn866       O871   2.424       .  S
Mn866       O930   2.129       .  S
Mn866      O1220   2.151   1_545  S
O868        C870   1.231       .  A
O868       Mn875   2.130       .  S
C869        O895   1.345       .  A
C869        O882   1.187       .  S
O871        C896   1.339       .  A
O872       Mn875   2.061   1_556  S
O872      Mn1036   2.205       .  S
O873       Mn948   1.879       .  S
O873       Mn970   1.986       .  S
O873        C896   1.209       .  S
C874        O900   1.269       .  A
C874        O876   1.248       .  A
Mn875       O959   1.989   1_554  S
Mn875       O890   1.897       .  S
Mn875       O953   1.919   1_554  S
O876      Mn1041   2.178       .  S
Mn877       O964   2.109       .  S
Mn877       O944   1.879       .  S
Mn877       O887   1.842   1_556  S
O878        C880   1.255       .  A
O878       Mn954   2.013       .  S
C879        O897   1.337       .  A
C880        O893   1.197       .  A
Mn881      O1149   2.157   1_545  S
O882       Mn946   1.919       .  S
Mn883       O949   2.013   1_554  S
Mn885       O963   2.160       .  S
Mn885       O900   2.092   1_556  S
C886        O892   1.209       .  A
C886        O902   1.264       .  A
O887       Mn899   1.860       .  S
O887        C889   1.188       .  S
O888       Mn946   1.989       .  S
O891      Mn1107   2.126       .  S
O892       Mn956   2.160       .  S
O893       Mn948   2.109       .  S
Mn894      O1144   2.057   1_546  S
Mn894      O1246   2.126   1_545  S
Mn894      O1156   2.205   1_545  S
Mn894       O972   1.917       .  S
O898        C903   1.342       .  A
Mn899      O1160   2.178   1_545  S
Mn899      O1257   1.975   1_544  S
Mn899      O1149   2.030   1_545  S
Mn899       O944   1.986   1_554  S
O901       Mn965   1.917       .  S
O901        C903   1.208       .  S
O902      Mn1112   1.975       .  S
C904        C905   1.402       .  A
C904        C909   1.392       .  A
C904        H911   1.078       .  S
C905        C906   1.392       .  A
C906        C907   1.368       .  A
C906       Br913   1.865   1_655  S
C907        C908   1.396       .  A
C907        H912   1.057       .  S
C908        C909   1.390       .  A
C909       Br910   1.835   1_545  S
C914        C915   1.416       .  A
C914        C919   1.436       .  A
C914        H921   1.076       .  S
C915        C916   1.430       .  A
C916        C917   1.431       .  A
C917        C918   1.399       .  A
C917        H922   1.071       .  S
C918        C919   1.442       .  A
C919       Br920   1.878       .  S
C924        C951   1.494       .  S
C924        C989   1.629       .  S
C924        C929   1.490       .  S
C924        C957   1.529       .  S
C925        C960   1.694       .  S
C925        C979   1.535       .  S
C925        C935   1.708       .  S
C925        C950   1.740       .  S
C926        C945   1.558       .  S
C926        C986   1.635       .  S
C926        C941   1.544       .  S
C926        C955   1.511       .  S
C927        C967   1.738       .  S
C927        C976   1.512       .  S
C927        C940   1.737       .  S
C927        C974   1.735       .  S
O928        C955   1.243       .  A
O928       Mn954   2.115       .  S
C929        O962   1.206       .  A
C929        O959   1.252       .  A
O930       Mn948   2.196       .  S
O930       Mn952   2.162       .  S
O930       Mn954   2.029       .  S
O931        C941   1.267       .  A
O931      Mn1107   2.057       .  S
O932        C955   1.255       .  A
O932       Mn948   2.042       .  S
O933        C960   1.334       .  A
O933       Mn952   2.438       .  S
O934       Mn965   1.879       .  S
O934        C950   1.201       .  S
C935        O938   1.348       .  A
C935        O961   1.184       .  S
O936       Mn956   2.228       .  S
O936      Mn1008   2.151       .  S
O936      Mn1112   2.030       .  S
O936      Mn1094   2.157       .  S
Mn937       O942   2.424       .  S
Mn937      O1149   2.151   1_546  S
O939        C941   1.231       .  A
O939       Mn946   2.130       .  S
C940        O966   1.345       .  A
C940        O953   1.187       .  S
O942        C967   1.339       .  A
O943       Mn946   2.061       .  S
O943      Mn1107   2.205       .  S
O944        C967   1.209       .  S
C945        O971   1.269       .  A
C945        O947   1.248       .  A
Mn946       O961   1.897       .  S
O947      Mn1112   2.178       .  S
Mn948       O958   1.842       .  S
O949        C951   1.255       .  A
C950        O968   1.336       .  A
C951        O964   1.197       .  A
Mn952      O1220   2.157   1_545  S
Mn956       O971   2.092       .  S
C957        O963   1.209       .  A
C957        O973   1.264       .  A
O958       Mn970   1.860       .  S
O958        C960   1.188       .  S
O962      Mn1036   2.126       .  S
Mn965      O1215   2.057   1_545  S
Mn965      O1175   2.126   1_545  S
Mn965      O1227   2.205   1_545  S
O969        C974   1.342       .  A
Mn970      O1231   2.178   1_545  S
Mn970      O1186   1.975   1_545  S
Mn970      O1220   2.030   1_545  S
O972        C974   1.208       .  S
O973      Mn1041   1.975   1_556  S
C975        C976   1.402       .  A
C975        C980   1.392       .  A
C975        H982   1.078       .  S
C976        C977   1.392       .  A
C977        C978   1.368       .  A
C977       Br984   1.865   1_655  S
C978        C979   1.396       .  A
C978        H983   1.057       .  S
C979        C980   1.390       .  A
C980       Br981   1.835   1_545  S
C985        C986   1.416       .  A
C985        C990   1.436       .  A
C985        H992   1.076       .  S
C986        C987   1.430       .  A
C987        C988   1.431       .  A
C988        C989   1.399       .  A
C988        H993   1.071       .  S
C989        C990   1.442       .  A
C990       Br991   1.878       .  S
C995       C1022   1.494       .  S
C995       C1060   1.629       .  S
C995       C1000   1.490       .  S
C995       C1028   1.529       .  S
C996       C1031   1.694       .  S
C996       C1050   1.535       .  S
C996       C1006   1.708       .  S
C996       C1021   1.740       .  S
C997       C1016   1.558       .  S
C997       C1057   1.635       .  S
C997       C1012   1.544       .  S
C997       C1026   1.511       .  S
C998       C1038   1.738       .  S
C998       C1047   1.512       .  S
C998       C1011   1.737       .  S
C998       C1045   1.735       .  S
O999       C1026   1.243       .  A
O999      Mn1025   2.115       .  S
C1000      O1033   1.206       .  A
C1000      O1030   1.252       .  A
O1001     Mn1079   2.129   1_554  S
O1001     Mn1019   2.196   1_554  S
O1001     Mn1023   2.162       .  S
O1001     Mn1025   2.029       .  S
O1002      C1012   1.267       .  A
O1002     Mn1178   2.057   1_554  S
O1003      C1026   1.255       .  A
O1003     Mn1019   2.042   1_554  S
O1004      C1031   1.334       .  A
O1004     Mn1023   2.438       .  S
O1005     Mn1036   1.879   1_554  S
O1005      C1021   1.201       .  S
C1006      O1009   1.348       .  A
C1006      O1032   1.184       .  S
O1007     Mn1027   2.228   1_554  S
O1007     Mn1221   2.151   1_554  S
O1007     Mn1183   2.030       .  S
O1007     Mn1165   2.157       .  S
Mn1008     O1013   2.424       .  S
Mn1008     O1072   2.129       .  S
O1010      C1012   1.231       .  A
O1010     Mn1017   2.130       .  S
C1011      O1037   1.345       .  A
C1011      O1024   1.187       .  S
O1013      C1038   1.339       .  A
O1014     Mn1017   2.061   1_556  S
O1014     Mn1178   2.205       .  S
O1015     Mn1090   1.879       .  S
O1015     Mn1112   1.986       .  S
O1015      C1038   1.209       .  S
C1016      O1042   1.269       .  A
C1016      O1018   1.248       .  A
Mn1017     O1101   1.989   1_554  S
Mn1017     O1032   1.897       .  S
Mn1017     O1095   1.919   1_554  S
O1018     Mn1183   2.178       .  S
Mn1019     O1106   2.109       .  S
Mn1019     O1086   1.879       .  S
Mn1019     O1029   1.842   1_556  S
O1020      C1022   1.255       .  A
O1020     Mn1096   2.013       .  S
C1021      O1039   1.337       .  A
C1022      O1035   1.197       .  A
O1024     Mn1088   1.919       .  S
Mn1025     O1091   2.013   1_554  S
Mn1027     O1105   2.160       .  S
Mn1027     O1042   2.092   1_556  S
C1028      O1034   1.209       .  A
C1028      O1044   1.264       .  A
O1029     Mn1041   1.860       .  S
O1029      C1031   1.188       .  S
O1030     Mn1088   1.989       .  S
O1033     Mn1249   2.126       .  S
O1034     Mn1098   2.160       .  S
O1035     Mn1090   2.109       .  S
Mn1036     O1114   1.917       .  S
O1040      C1045   1.342       .  A
Mn1041     O1086   1.986   1_554  S
O1043     Mn1107   1.917       .  S
O1043      C1045   1.208       .  S
O1044     Mn1254   1.975       .  S
C1046      C1047   1.402       .  A
C1046      C1051   1.392       .  A
C1046      H1053   1.078       .  S
C1047      C1048   1.392       .  A
C1048      C1049   1.368       .  A
C1048     Br1055   1.865   1_655  S
C1049      C1050   1.396       .  A
C1049      H1054   1.057       .  S
C1050      C1051   1.390       .  A
C1051     Br1052   1.835       .  S
C1056      C1057   1.416       .  A
C1056      C1061   1.436       .  A
C1056      H1063   1.076       .  S
C1057      C1058   1.430       .  A
C1058      C1059   1.431       .  A
C1059      C1060   1.399       .  A
C1059      H1064   1.071       .  S
C1060      C1061   1.442       .  A
C1061     Br1062   1.878       .  S
C1066      C1093   1.494       .  S
C1066      C1131   1.629       .  S
C1066      C1071   1.490       .  S
C1066      C1099   1.529       .  S
C1067      C1102   1.694       .  S
C1067      C1121   1.535       .  S
C1067      C1077   1.708       .  S
C1067      C1092   1.740       .  S
C1068      C1087   1.558       .  S
C1068      C1128   1.635       .  S
C1068      C1083   1.544       .  S
C1068      C1097   1.511       .  S
C1069      C1109   1.738       .  S
C1069      C1118   1.512       .  S
C1069      C1082   1.737       .  S
C1069      C1116   1.735       .  S
O1070      C1097   1.243       .  A
O1070     Mn1096   2.115       .  S
C1071      O1104   1.206       .  A
C1071      O1101   1.252       .  A
O1072     Mn1090   2.196       .  S
O1072     Mn1094   2.162       .  S
O1072     Mn1096   2.029       .  S
O1073      C1083   1.267       .  A
O1073     Mn1249   2.057       .  S
O1074      C1097   1.255       .  A
O1074     Mn1090   2.042       .  S
O1075      C1102   1.334       .  A
O1075     Mn1094   2.438       .  S
O1076     Mn1107   1.879       .  S
O1076      C1092   1.201       .  S
C1077      O1080   1.348       .  A
C1077      O1103   1.184       .  S
O1078     Mn1098   2.228       .  S
O1078     Mn1150   2.151       .  S
O1078     Mn1254   2.030       .  S
O1078     Mn1236   2.157       .  S
Mn1079     O1084   2.424       .  S
O1081      C1083   1.231       .  A
O1081     Mn1088   2.130       .  S
C1082      O1108   1.345       .  A
C1082      O1095   1.187       .  S
O1084      C1109   1.339       .  A
O1085     Mn1088   2.061       .  S
O1085     Mn1249   2.205       .  S
O1086      C1109   1.209       .  S
C1087      O1113   1.269       .  A
C1087      O1089   1.248       .  A
Mn1088     O1103   1.897       .  S
O1089     Mn1254   2.178       .  S
Mn1090     O1100   1.842       .  S
O1091      C1093   1.255       .  A
C1092      O1110   1.337       .  A
C1093      O1106   1.197       .  A
Mn1098     O1113   2.092       .  S
C1099      O1105   1.209       .  A
C1099      O1115   1.264       .  A
O1100     Mn1112   1.860       .  S
O1100      C1102   1.188       .  S
O1104     Mn1178   2.126       .  S
O1111      C1116   1.342       .  A
O1114      C1116   1.208       .  S
O1115     Mn1183   1.975   1_556  S
C1117      C1118   1.402       .  A
C1117      C1122   1.392       .  A
C1117      H1124   1.078       .  S
C1118      C1119   1.392       .  A
C1119      C1120   1.368       .  A
C1119     Br1126   1.865   1_655  S
C1120      C1121   1.396       .  A
C1120      H1125   1.057       .  S
C1121      C1122   1.390       .  A
C1122     Br1123   1.835       .  S
C1127      C1128   1.416       .  A
C1127      C1132   1.436       .  A
C1127      H1134   1.076       .  S
C1128      C1129   1.430       .  A
C1129      C1130   1.431       .  A
C1130      C1131   1.399       .  A
C1130      H1135   1.071       .  S
C1131      C1132   1.442       .  A
C1132     Br1133   1.878       .  S
C1137      C1164   1.494       .  S
C1137      C1202   1.629       .  S
C1137      C1142   1.490       .  S
C1137      C1170   1.529       .  S
C1138      C1173   1.694       .  S
C1138      C1192   1.535       .  S
C1138      C1148   1.708       .  S
C1138      C1163   1.740       .  S
C1139      C1158   1.558       .  S
C1139      C1199   1.635       .  S
C1139      C1154   1.544       .  S
C1139      C1168   1.511       .  S
C1140      C1180   1.738       .  S
C1140      C1189   1.512       .  S
C1140      C1153   1.737       .  S
C1140      C1187   1.735       .  S
O1141      C1168   1.243       .  A
O1141     Mn1167   2.115       .  S
C1142      O1175   1.206       .  A
C1142      O1172   1.252       .  A
O1143     Mn1221   2.129   1_554  S
O1143     Mn1161   2.196   1_554  S
O1143     Mn1165   2.162       .  S
O1143     Mn1167   2.029       .  S
O1144      C1154   1.267       .  A
O1145      C1168   1.255       .  A
O1145     Mn1161   2.042   1_554  S
O1146      C1173   1.334       .  A
O1146     Mn1165   2.438       .  S
O1147     Mn1178   1.879   1_554  S
O1147      C1163   1.201       .  S
C1148      O1151   1.348       .  A
C1148      O1174   1.184       .  S
O1149     Mn1169   2.228   1_554  S
Mn1150     O1155   2.424       .  S
Mn1150     O1214   2.129       .  S
O1152      C1154   1.231       .  A
O1152     Mn1159   2.130       .  S
C1153      O1179   1.345       .  A
C1153      O1166   1.187       .  S
O1155      C1180   1.339       .  A
O1156     Mn1159   2.061   1_556  S
O1157     Mn1232   1.879       .  S
O1157     Mn1254   1.986       .  S
O1157      C1180   1.209       .  S
C1158      O1184   1.269       .  A
C1158      O1160   1.248       .  A
Mn1159     O1243   1.989   1_554  S
Mn1159     O1174   1.897       .  S
Mn1159     O1237   1.919   1_554  S
Mn1161     O1248   2.109       .  S
Mn1161     O1228   1.879       .  S
Mn1161     O1171   1.842   1_556  S
O1162      C1164   1.255       .  A
O1162     Mn1238   2.013       .  S
C1163      O1181   1.336       .  A
C1164      O1177   1.197       .  A
O1166     Mn1230   1.919       .  S
Mn1167     O1233   2.013   1_554  S
Mn1169     O1247   2.160       .  S
Mn1169     O1184   2.092   1_556  S
C1170      O1176   1.209       .  A
C1170      O1186   1.264       .  A
O1171     Mn1183   1.860       .  S
O1171      C1173   1.188       .  S
O1172     Mn1230   1.989       .  S
O1176     Mn1240   2.160       .  S
O1177     Mn1232   2.109       .  S
Mn1178     O1256   1.917       .  S
O1182      C1187   1.342       .  A
Mn1183     O1228   1.986   1_554  S
O1185     Mn1249   1.917       .  S
O1185      C1187   1.208       .  S
C1188      C1189   1.402       .  A
C1188      C1193   1.392       .  A
C1188      H1195   1.078       .  S
C1189      C1190   1.392       .  A
C1190      C1191   1.368       .  A
C1190     Br1197   1.865   1_655  S
C1191      C1192   1.396       .  A
C1191      H1196   1.057       .  S
C1192      C1193   1.390       .  A
C1193     Br1194   1.835       .  S
C1198      C1199   1.416       .  A
C1198      C1203   1.436       .  A
C1198      H1205   1.076       .  S
C1199      C1200   1.430       .  A
C1200      C1201   1.431       .  A
C1201      C1202   1.399       .  A
C1201      H1206   1.071       .  S
C1202      C1203   1.442       .  A
C1203     Br1204   1.878       .  S
C1208      C1235   1.494       .  S
C1208      C1273   1.629       .  S
C1208      C1213   1.490       .  S
C1208      C1241   1.529       .  S
C1209      C1244   1.694       .  S
C1209      C1263   1.535       .  S
C1209      C1219   1.708       .  S
C1209      C1234   1.740       .  S
C1210      C1229   1.558       .  S
C1210      C1270   1.635       .  S
C1210      C1225   1.544       .  S
C1210      C1239   1.511       .  S
C1211      C1251   1.738       .  S
C1211      C1260   1.512       .  S
C1211      C1224   1.737       .  S
C1211      C1258   1.735       .  S
O1212      C1239   1.243       .  A
O1212     Mn1238   2.115       .  S
C1213      O1246   1.206       .  A
C1213      O1243   1.252       .  A
O1214     Mn1232   2.196       .  S
O1214     Mn1236   2.162       .  S
O1214     Mn1238   2.029       .  S
O1215      C1225   1.267       .  A
O1216      C1239   1.255       .  A
O1216     Mn1232   2.042       .  S
O1217      C1244   1.334       .  A
O1217     Mn1236   2.438       .  S
O1218     Mn1249   1.879       .  S
O1218      C1234   1.201       .  S
C1219      O1222   1.348       .  A
C1219      O1245   1.184       .  S
O1220     Mn1240   2.228       .  S
Mn1221     O1226   2.424       .  S
O1223      C1225   1.231       .  A
O1223     Mn1230   2.130       .  S
C1224      O1250   1.345       .  A
C1224      O1237   1.187       .  S
O1226      C1251   1.339       .  A
O1227     Mn1230   2.061       .  S
O1228      C1251   1.209       .  S
C1229      O1255   1.269       .  A
C1229      O1231   1.248       .  A
Mn1230     O1245   1.897       .  S
Mn1232     O1242   1.842       .  S
O1233      C1235   1.255       .  A
C1234      O1252   1.336       .  A
C1235      O1248   1.197       .  A
Mn1240     O1255   2.092       .  S
C1241      O1247   1.209       .  A
C1241      O1257   1.264       .  A
O1242     Mn1254   1.860       .  S
O1242      C1244   1.188       .  S
O1253      C1258   1.342       .  A
O1256      C1258   1.208       .  S
C1259      C1260   1.402       .  A
C1259      C1264   1.392       .  A
C1259      H1266   1.078       .  S
C1260      C1261   1.392       .  A
C1261      C1262   1.368       .  A
C1261     Br1268   1.865   1_655  S
C1262      C1263   1.396       .  A
C1262      H1267   1.057       .  S
C1263      C1264   1.390       .  A
C1264     Br1265   1.835       .  S
C1269      C1270   1.416       .  A
C1269      C1274   1.436       .  A
C1269      H1276   1.076       .  S
C1270      C1271   1.430       .  A
C1271      C1272   1.431       .  A
C1272      C1273   1.399       .  A
C1272      H1277   1.071       .  S
C1273      C1274   1.442       .  A
C1274     Br1275   1.878       .  S
