geometry optimzed in LAMMPS
_audit_creation_date              2020-11-30 
_audit_creation_method            'lammps2cif' 
_symmetry_space_group_name_H-M    'P1' 
_symmetry_Int_Tables_number       1 
_symmetry_cell_setting            triclinic 
loop_ 
_symmetry_equiv_pos_as_xyz 
  x,y,z 
_cell_length_a                    43.46903987 
_cell_length_b                    43.58540861369032 
_cell_length_c                    65.18425241889823 
_cell_angle_alpha                 90.19437425419109 
_cell_angle_beta                  90.21973287849241 
_cell_angle_gamma                 89.83288528297358 
loop_ 
_atom_site_label 
_atom_site_type_symbol 
_atom_site_fract_x 
_atom_site_fract_y 
_atom_site_fract_z 
_atom_site_charge 
O1          O  0.01655066  0.04310864  0.16691315    -0.71400
O2          O  0.01597317  0.45575859  0.16650302    -0.71600
O3          O  0.01460541  0.99940467  0.13789120    -0.71500
O4          O  0.01825999  0.49783956  0.19631448    -0.71500
O5          O  0.46755197  0.99818600  0.19682474    -0.71500
O6          O  0.46571072  0.50340788  0.13924119    -0.71500
O7          O  0.46614206  0.45667927  0.16610580    -0.71400
O8          O  0.46683975  0.04356295  0.16887484    -0.71600
V9          V  0.01509010  0.99957654  0.16696379     1.35200
V10         V  0.46794522  0.50002427  0.16825564     1.35200
C11         C  0.49185966  0.05828487  0.16797314     0.77800
C12         C  0.49081605  0.44130830  0.16623757     0.77900
C13         C  0.98921113  0.00053599  0.12837810     0.77700
C14         C  0.99382181  0.49534035  0.20656584     0.77700
O15         O  0.46732242  0.25223045  0.19849085    -0.71400
O16         O  0.46380271  0.24939111  0.14023639    -0.71600
O17         O  0.46462754  0.20701828  0.17018744    -0.71500
O18         O  0.46676914  0.29408464  0.16849025    -0.71500
O19         O  0.01658244  0.29284272  0.16771209    -0.71500
O20         O  0.01439545  0.20595640  0.16851134    -0.71500
O21         O  0.01362179  0.24861603  0.13902486    -0.71400
O22         O  0.01715898  0.24990022  0.19728966    -0.71600
V23         V  0.46658483  0.25062957  0.16933475     1.35200
V24         V  0.01446675  0.24936398  0.16817637     1.35200
C25         C  0.99283746  0.25152981  0.20784528     0.77800
C26         C  0.98807879  0.24864917  0.12966274     0.77900
C27         C  0.48926517  0.19153364  0.16942717     0.77700
C28         C  0.49205112  0.30835475  0.16782355     0.77700
O29         O  0.27683608  0.49953601  0.19565917    -0.71400
O30         O  0.28472090  0.00296017  0.13810295    -0.71600
O31         O  0.28361984  0.04504536  0.16833513    -0.71500
O32         O  0.27909938  0.45815944  0.16554651    -0.71500
O33         O  0.22927577  0.45889121  0.16387087    -0.71500
O34         O  0.23382055  0.04598699  0.16622194    -0.71500
O35         O  0.23317680  0.50334122  0.13541210    -0.71400
O36         O  0.23137002  0.00237551  0.19489702    -0.71600
V37         V  0.27876974  0.50163003  0.16672940     1.35200
V38         V  0.23088931  0.50243515  0.16447542     1.35200
C39         C  0.25098198  0.49993103  0.20437857     0.77800
C40         C  0.25915901  0.50412716  0.12670581     0.77900
C41         C  0.25887181  0.06043544  0.16759671     0.77700
C42         C  0.25397821  0.44358597  0.16468347     0.77700
O43         O  0.23449581  0.20799699  0.16630813    -0.71400
O44         O  0.23235962  0.29518397  0.16578374    -0.71600
O45         O  0.23334523  0.25129915  0.13693312    -0.71500
O46         O  0.23291863  0.25225503  0.19506085    -0.71500
O47         O  0.28284566  0.25134374  0.19542816    -0.71500
O48         O  0.28313709  0.25381908  0.13713875    -0.71500
O49         O  0.28218243  0.29590918  0.16717712    -0.71400
O50         O  0.28433999  0.20902062  0.16544801    -0.71600
V51         V  0.23423313  0.25161781  0.16601403     1.35200
V52         V  0.28216747  0.25248217  0.16628076     1.35200
C53         C  0.25984027  0.19356464  0.16595576     0.77800
C54         C  0.25704774  0.31048312  0.16658468     0.77900
C55         C  0.25819050  0.25317932  0.12704415     0.77700
C56         C  0.25773483  0.25203906  0.20518713     0.77700
O57         O  0.03907930  0.01029814  0.33506520    -0.71400
O58         O  0.45179362  0.00953224  0.33291679    -0.71600
O59         O  0.99387682  0.00698941  0.36299580    -0.71500
O60         O  0.49730847  0.01315239  0.30518806    -0.71500
O61         O  0.99769124  0.46021748  0.30346257    -0.71500
O62         O  0.49796222  0.45673481  0.36168955    -0.71500
O63         O  0.45407323  0.45742117  0.33249311    -0.71400
O64         O  0.04140646  0.45984842  0.33259822    -0.71600
V65         V  0.99546145  0.00892928  0.33404877     1.35200
V66         V  0.49780086  0.45943954  0.33253595     1.35200
C67         C  0.05559910  0.48515725  0.33353322     0.77800
C68         C  0.43872582  0.48211653  0.33232712     0.77900
C69         C  0.99594618  0.48141508  0.37219198     0.77700
C70         C  0.99858055  0.48574921  0.29431669     0.77700
O71         O  0.04797899  0.28441382  0.33179160    -0.71400
O72         O  0.46097999  0.28296029  0.33626849    -0.71600
O73         O  0.00806170  0.28693600  0.36314120    -0.71500
O74         O  0.50079224  0.28080187  0.30514849    -0.71500
O75         O  0.00545429  0.23114833  0.30713708    -0.71500
O76         O  0.50604777  0.23765548  0.36540581    -0.71500
O77         O  0.46211858  0.23322572  0.33654502    -0.71400
O78         O  0.04910705  0.23509199  0.33602158    -0.71600
V79         V  0.00449332  0.28278524  0.33420842     1.35200
V80         V  0.50568285  0.23529587  0.33624832     1.35200
C81         C  0.06344752  0.25990754  0.33327423     0.77800
C82         C  0.44659990  0.25776396  0.33672623     0.77900
C83         C  0.00742290  0.26324332  0.37424820     0.77700
C84         C  0.00233829  0.25498823  0.29629567     0.77700
O85         O  0.24856766  0.46333495  0.30154563    -0.71400
O86         O  0.24624194  0.46091777  0.35981200    -0.71600
O87         O  0.20397644  0.46139954  0.32996102    -0.71500
O88         O  0.29076448  0.46236725  0.33146271    -0.71500
O89         O  0.28883435  0.01053212  0.33305882    -0.71500
O90         O  0.20171451  0.00820497  0.33244109    -0.71500
O91         O  0.24469848  0.00714702  0.36191932    -0.71400
O92         O  0.24574511  0.01151520  0.30389752    -0.71600
V93         V  0.24738623  0.46298223  0.33071321     1.35200
V94         V  0.24524904  0.00838025  0.33282092     1.35200
C95         C  0.24772038  0.48875388  0.29225687     0.77800
C96         C  0.24605540  0.48540261  0.37032221     0.77900
C97         C  0.18859435  0.48592724  0.33102857     0.77700
C98         C  0.30558165  0.48723143  0.33154699     0.77700
O99         O  0.25618629  0.28034125  0.30276867    -0.71400
O100        O  0.25217891  0.28392809  0.36087345    -0.71600
O101        O  0.29788056  0.28310422  0.33322245    -0.71500
O102        O  0.21100427  0.28131729  0.33042726    -0.71500
O103        O  0.21182016  0.23157609  0.33065856    -0.71500
O104        O  0.29886366  0.23349377  0.33548725    -0.71500
O105        O  0.25185900  0.23418397  0.36201248    -0.71400
O106        O  0.25918478  0.23057769  0.30407438    -0.71600
V107        V  0.25438474  0.28120413  0.33183277     1.35200
V108        V  0.25540436  0.23339754  0.33302800     1.35200
C109        C  0.25848269  0.25486490  0.29358321     0.77800
C110        C  0.25090705  0.25962991  0.37136840     0.77900
C111        C  0.31330204  0.25863952  0.33493392     0.77700
C112        C  0.19647078  0.25626600  0.33012059     0.77700
O113        O  0.99714995  0.46079878  0.47127008    -0.71400
O114        O  0.49719226  0.46216134  0.52937252    -0.71600
O115        O  0.45377913  0.46117854  0.50025872    -0.71500
O116        O  0.04060965  0.46156275  0.50045960    -0.71500
O117        O  0.04094697  0.00497235  0.50019940    -0.71500
O118        O  0.45350991  0.00535775  0.49964553    -0.71500
O119        O  0.99697126  0.00532331  0.52888481    -0.71400
O120        O  0.49741747  0.00545777  0.47087431    -0.71600
V121        V  0.99719147  0.46241979  0.50031792     1.35200
V122        V  0.99723232  0.00426869  0.49988292     1.35200
C123        C  0.99692497  0.48545081  0.46111905     0.77800
C124        C  0.99681793  0.48707161  0.53924923     0.77900
C125        C  0.43856211  0.48589103  0.49995874     0.77700
C126        C  0.05555725  0.48636505  0.50040974     0.77700
O127        O  0.45808379  0.29714654  0.50159730    -0.71400
O128        O  0.04530826  0.29716393  0.50173958    -0.71600
O129        O  0.50178669  0.29634889  0.47253316    -0.71500
O130        O  0.00176427  0.29769272  0.53104895    -0.71500
O131        O  0.50152036  0.24787227  0.53118854    -0.71500
O132        O  0.00225729  0.24672103  0.47320987    -0.71500
O133        O  0.04542440  0.24734310  0.50249614    -0.71400
O134        O  0.45828945  0.24741222  0.50165059    -0.71600
V135        V  0.50172075  0.29614604  0.50180062     1.35200
V136        V  0.00185899  0.24839764  0.50214229     1.35200
C137        C  0.44322286  0.27227760  0.50122495     0.77800
C138        C  0.06020193  0.27223346  0.50188008     0.77900
C139        C  0.00206116  0.27117706  0.46289967     0.77700
C140        C  0.00211076  0.27282509  0.54106873     0.77700
O141        O  0.24567153  0.99901345  0.46991508    -0.71400
O142        O  0.24862724  0.00135705  0.52784187    -0.71600
O143        O  0.29066951  0.00023654  0.49805102    -0.71500
O144        O  0.20372005  0.99979670  0.49967633    -0.71500
O145        O  0.20348799  0.45556624  0.49945519    -0.71500
O146        O  0.29082893  0.45525554  0.49803279    -0.71500
O147        O  0.24833373  0.45623354  0.52795552    -0.71400
O148        O  0.24591216  0.45472667  0.46945711    -0.71600
V149        V  0.24719574  0.99907199  0.49886480     1.35200
V150        V  0.24714732  0.45634321  0.49871291     1.35200
C151        C  0.24562859  0.47951582  0.45938666     0.77800
C152        C  0.24836839  0.48146012  0.53768695     0.77900
C153        C  0.30561132  0.48018638  0.49786266     0.77700
C154        C  0.18866209  0.48056378  0.49947873     0.77700
O155        O  0.25048464  0.29016746  0.46883527    -0.71400
O156        O  0.25227487  0.29745205  0.52699262    -0.71600
O157        O  0.29497799  0.29333716  0.49732756    -0.71500
O158        O  0.20788219  0.29446087  0.49832926    -0.71500
O159        O  0.20750476  0.24478332  0.50075010    -0.71500
O160        O  0.29490298  0.24376510  0.50003118    -0.71500
O161        O  0.25144721  0.24776266  0.52919983    -0.71400
O162        O  0.25067724  0.24054126  0.47131387    -0.71600
V163        V  0.25145544  0.29289332  0.49789358     1.35200
V164        V  0.25117877  0.24517886  0.50027074     1.35200
C165        C  0.25031747  0.26415215  0.46014007     0.77800
C166        C  0.25141216  0.27364001  0.53800591     0.77900
C167        C  0.30990403  0.26846008  0.49848207     0.77700
C168        C  0.19282440  0.26985037  0.49997646     0.77700
O169        O  0.46335806  0.04040004  0.99964258    -0.71400
O170        O  0.46339560  0.45373717  0.00244212    -0.71600
O171        O  0.46351568  0.99887713  0.02976786    -0.71500
O172        O  0.46243449  0.49546591  0.97220491    -0.71500
O173        O  0.01128364  0.99330546  0.97122168    -0.71500
O174        O  0.01523625  0.49917628  0.02956754    -0.71500
O175        O  0.01323565  0.45286661  0.00223873    -0.71400
O176        O  0.01319158  0.03954456  0.99877401    -0.71600
V177        V  0.46337376  0.99704908  0.00066222     1.35200
V178        V  0.01279334  0.49646910  0.00054167     1.35200
C179        C  0.98846234  0.05495947  0.99904499     0.77800
C180        C  0.98805559  0.43839499  0.00283750     0.77900
C181        C  0.98879439  0.99938343  0.03946265     0.77700
C182        C  0.98614132  0.99334493  0.96139275     0.77700
O183        O  0.45797515  0.29035938  0.00075061    -0.71400
O184        O  0.45862266  0.20308274  0.00130513    -0.71600
O185        O  0.45696725  0.24762238  0.03034164    -0.71500
O186        O  0.45991525  0.24594426  0.97179534    -0.71500
O187        O  0.00974228  0.24647263  0.97315361    -0.71500
O188        O  0.00685314  0.24716075  0.03110029    -0.71500
O189        O  0.00846174  0.20338758  0.00215189    -0.71400
O190        O  0.00779316  0.29034456  0.00219142    -0.71600
V191        V  0.45927025  0.24673823  0.00105614     1.35200
V192        V  0.00718251  0.24687676  0.00213366     1.35200
C193        C  0.98282724  0.30531655  0.00167554     0.77800
C194        C  0.98368005  0.18827904  0.00155683     0.77900
C195        C  0.98167332  0.24774366  0.04070333     0.77700
C196        C  0.98546722  0.24563496  0.96249147     0.77700
O197        O  0.28847111  0.50843152  0.02844140    -0.71400
O198        O  0.28686165  0.00971156  0.97060790    -0.71600
O199        O  0.28614816  0.05256298  0.00015122    -0.71500
O200        O  0.28890198  0.46508551  0.99885028    -0.71500
O201        O  0.23899967  0.46552803  0.99928512    -0.71500
O202        O  0.23630525  0.05234085  0.99915284    -0.71500
O203        O  0.23956983  0.50833777  0.96982679    -0.71400
O204        O  0.23620193  0.00918557  0.02836083    -0.71600
V205        V  0.28813048  0.50864039  0.99926186     1.35200
V206        V  0.24018254  0.50910931  0.99882081     1.35200
C207        C  0.26324986  0.50977039  0.03806978     0.77800
C208        C  0.26451811  0.50876826  0.95999726     0.77900
C209        C  0.26115699  0.06739130  0.99964056     0.77700
C210        C  0.26389402  0.45038803  0.99898040     0.77700
O211        O  0.23512768  0.25975355  0.02815070    -0.71400
O212        O  0.23386883  0.25862916  0.96975488    -0.71600
O213        O  0.23361597  0.21583895  0.99925521    -0.71500
O214        O  0.23498638  0.30292862  0.99894754    -0.71500
O215        O  0.28489468  0.30207486  0.99879593    -0.71500
O216        O  0.28346946  0.21504955  0.99875421    -0.71500
O217        O  0.28378277  0.25832884  0.96963814    -0.71400
O218        O  0.28497430  0.25854172  0.02783994    -0.71600
V219        V  0.23534687  0.25933577  0.99899852     1.35200
V220        V  0.28329466  0.25853873  0.99873855     1.35200
C221        C  0.26029546  0.25901306  0.03800024     0.77800
C222        C  0.25874283  0.25795758  0.95971085     0.77900
C223        C  0.25831789  0.20051209  0.99914007     0.77700
C224        C  0.26014245  0.31741028  0.99910585     0.77700
O225        O  0.01910689  0.98844688  0.80475045    -0.71400
O226        O  0.01587628  0.48950170  0.86362928    -0.71600
O227        O  0.01841834  0.44605810  0.83456482    -0.71500
O228        O  0.01817053  0.03261101  0.83391989    -0.71500
O229        O  0.46830209  0.03301299  0.83371814    -0.71500
O230        O  0.46852522  0.44494863  0.83405938    -0.71500
O231        O  0.46684600  0.98846491  0.86193182    -0.71400
O232        O  0.46840823  0.48707500  0.80432232    -0.71600
V233        V  0.01607606  0.48954352  0.83442624     1.35200
V234        V  0.46816455  0.48834258  0.83344867     1.35200
C235        C  0.99363162  0.48753977  0.79476326     0.77800
C236        C  0.99049573  0.48911685  0.87306200     0.77900
C237        C  0.99385444  0.43064019  0.83439461     0.77700
C238        C  0.99328555  0.04779267  0.83413428     0.77700
O239        O  0.02180648  0.24041439  0.80647583    -0.71400
O240        O  0.01603521  0.24011424  0.86462324    -0.71600
O241        O  0.02027382  0.19649195  0.83553113    -0.71500
O242        O  0.01779916  0.28344647  0.83567128    -0.71500
O243        O  0.46816269  0.28243486  0.83226289    -0.71500
O244        O  0.47044949  0.19550989  0.83438158    -0.71500
O245        O  0.46625567  0.24072843  0.86234509    -0.71400
O246        O  0.47209903  0.23746018  0.80424245    -0.71600
V247        V  0.01802908  0.24003861  0.83552231     1.35200
V248        V  0.47019993  0.23896776  0.83333795     1.35200
C249        C  0.99785931  0.23932376  0.79539872     0.77800
C250        C  0.99015156  0.24107433  0.87344798     0.77900
C251        C  0.99570299  0.18107638  0.83524891     0.77700
C252        C  0.99266464  0.29785848  0.83383607     0.77700
O253        O  0.23537837  0.46425315  0.83320787    -0.71400
O254        O  0.24033751  0.05009522  0.83258764    -0.71600
O255        O  0.23603726  0.50687050  0.80375144    -0.71500
O256        O  0.24089490  0.00710265  0.86166623    -0.71500
O257        O  0.29026244  0.50741389  0.86047789    -0.71500
O258        O  0.28833181  0.00397281  0.80274219    -0.71500
O259        O  0.29016759  0.04963629  0.83105712    -0.71400
O260        O  0.28518789  0.46134327  0.83316072    -0.71600
V261        V  0.23924981  0.50769851  0.83271909     1.35200
V262        V  0.28866280  0.00600301  0.83196580     1.35200
C263        C  0.25942906  0.44789633  0.83324948     0.77800
C264        C  0.26534306  0.06480296  0.83180947     0.77900
C265        C  0.25995581  0.50261939  0.79319040     0.77700
C266        C  0.26595135  0.50863901  0.87104855     0.77700
O267        O  0.23373959  0.25480571  0.80247944    -0.71400
O268        O  0.23552229  0.25708340  0.86080558    -0.71600
O269        O  0.23422248  0.29976827  0.83106132    -0.71500
O270        O  0.23516988  0.21253030  0.83217753    -0.71500
O271        O  0.28503221  0.21308638  0.83134540    -0.71500
O272        O  0.28409265  0.29996560  0.83105066    -0.71500
O273        O  0.28542276  0.25707546  0.86041782    -0.71400
O274        O  0.28368992  0.25634148  0.80211896    -0.71600
V275        V  0.23560859  0.25609802  0.83164648     1.35200
V276        V  0.28357109  0.25656332  0.83123880     1.35200
C277        C  0.25849727  0.25532720  0.79238047     0.77800
C278        C  0.26072107  0.25736511  0.87060516     0.77900
C279        C  0.25910475  0.31480884  0.83089058     0.77700
C280        C  0.26030618  0.19787881  0.83171807     0.77700
O281        O  0.45531222  0.00565719  0.66590781    -0.71400
O282        O  0.04216670  0.00647419  0.66675281    -0.71600
O283        O  0.49916680  0.00451073  0.63732066    -0.71500
O284        O  0.99789514  0.00772594  0.69534715    -0.71500
O285        O  0.49951145  0.45628261  0.69623989    -0.71500
O286        O  0.99821596  0.45719528  0.63795755    -0.71500
O287        O  0.04269682  0.45723596  0.66671007    -0.71400
O288        O  0.45532673  0.45634247  0.66727995    -0.71600
V289        V  0.49869919  0.00505970  0.66634330     1.35200
V290        V  0.99901473  0.45771388  0.66711109     1.35200
C291        C  0.44026076  0.48119708  0.66714795     0.77800
C292        C  0.05722765  0.48231739  0.66718056     0.77900
C293        C  0.99805101  0.48224044  0.62820720     0.77700
C294        C  0.99880259  0.48132406  0.70623953     0.77700
O295        O  0.50204987  0.23327230  0.69580143    -0.71400
O296        O  0.00581245  0.24356364  0.63832455    -0.71600
O297        O  0.04771947  0.23898438  0.66839479    -0.71500
O298        O  0.46030413  0.23847556  0.66560055    -0.71500
O299        O  0.45989479  0.28724306  0.67254237    -0.71500
O300        O  0.04691173  0.28869225  0.66951324    -0.71500
O301        O  0.50087416  0.29278328  0.64186842    -0.71400
O302        O  0.00614454  0.28260021  0.69997507    -0.71600
V303        V  0.00399480  0.23950399  0.66709604     1.35200
V304        V  0.00344185  0.28697022  0.67089472     1.35200
C305        C  0.00424019  0.25603847  0.70767246     0.77800
C306        C  0.00322165  0.26966400  0.63012677     0.77900
C307        C  0.06231105  0.26409754  0.66898385     0.77700
C308        C  0.44519167  0.26282743  0.66895409     0.77700
O309        O  0.24814670  0.01558377  0.69447498    -0.71400
O310        O  0.24935020  0.00813139  0.63642399    -0.71600
O311        O  0.20508247  0.01198241  0.66505828    -0.71500
O312        O  0.29248674  0.01168941  0.66599550    -0.71500
O313        O  0.29198697  0.46235937  0.66660911    -0.71500
O314        O  0.20515643  0.46336170  0.66777398    -0.71500
O315        O  0.24764533  0.45979894  0.63801925    -0.71400
O316        O  0.24978615  0.46614403  0.69633336    -0.71600
V317        V  0.24875794  0.01091152  0.66550514     1.35200
V318        V  0.24858866  0.46389334  0.66715804     1.35200
C319        C  0.24988598  0.49210013  0.70511955     0.77800
C320        C  0.24792548  0.48364493  0.62700213     0.77900
C321        C  0.19018309  0.48820231  0.66677106     0.77700
C322        C  0.30719706  0.48691758  0.66544407     0.77700
O323        O  0.29791381  0.24031678  0.66128094    -0.71400
O324        O  0.21107049  0.23922384  0.66623289    -0.71600
O325        O  0.25029404  0.24353248  0.63484460    -0.71500
O326        O  0.25806672  0.23665366  0.69282499    -0.71500
O327        O  0.25697883  0.28636895  0.69539575    -0.71500
O328        O  0.25141578  0.29318199  0.63759680    -0.71500
O329        O  0.21046296  0.28888943  0.66819655    -0.71400
O330        O  0.29774859  0.28986889  0.66502174    -0.71600
V331        V  0.25441429  0.24088294  0.66383093     1.35200
V332        V  0.25413439  0.28860882  0.66646348     1.35200
C333        C  0.31269624  0.26514118  0.66278221     0.77800
C334        C  0.19583302  0.26378119  0.66792132     0.77900
C335        C  0.24943381  0.26960924  0.62636434     0.77700
C336        C  0.25849144  0.26050451  0.70396980     0.77700
C337        C  0.39629505  0.24335868  0.65401880    -0.11900
C338        C  0.41123401  0.26303587  0.66790579     0.05100
C339        C  0.39351593  0.28372972  0.67968109    -0.07200
C340        C  0.36159027  0.28486334  0.67706854    -0.08000
C341        C  0.34663614  0.26510840  0.66328311    -0.02500
C342        C  0.36427271  0.24423692  0.65160168     0.04300
N343        N  0.35020112  0.22491075  0.63652757     0.66800
H344        H  0.40964989  0.22767536  0.64456636     0.15700
H345        H  0.34823304  0.30051572  0.68654218     0.15400
N346        N  0.40732020  0.30222247  0.69532425     0.74500
O347        O  0.34654943  0.23475678  0.61849501    -0.38900
O348        O  0.34733842  0.19660933  0.64001831    -0.38900
O349        O  0.40977269  0.33077965  0.69271752    -0.39600
O350        O  0.41121210  0.29116096  0.71301694    -0.39600
C351        C  0.11260365  0.23664680  0.67044132    -0.11900
C352        C  0.09648069  0.26452790  0.66912302     0.05100
C353        C  0.11346959  0.29213650  0.66814563    -0.07200
C354        C  0.14561723  0.29123755  0.66808734    -0.08000
C355        C  0.16173522  0.26335360  0.66910135    -0.02500
C356        C  0.14478288  0.23577250  0.67061178     0.04300
N357        N  0.15970887  0.20669177  0.67275399     0.66800
H358        H  0.10013861  0.21510766  0.67155483     0.15700
H359        H  0.15805699  0.31279178  0.66699958     0.15400
N360        N  0.09861249  0.32136547  0.66704308     0.74500
O361        O  0.16597063  0.19678237  0.69045757    -0.38900
O362        O  0.16078275  0.18857947  0.65762825    -0.38900
O363        O  0.09602173  0.33742649  0.68308937    -0.39600
O364        O  0.09391328  0.33352292  0.64976743    -0.39600
C365        C  0.35606937  0.45767546  0.66922605    -0.11900
C366        C  0.34125641  0.48579309  0.66529695     0.05100
C367        C  0.35950701  0.01266130  0.66758619    -0.07200
C368        C  0.39154816  0.01028769  0.66765125    -0.08000
C369        C  0.40622811  0.48176958  0.66651911    -0.02500
C370        C  0.38814938  0.45537515  0.66975941     0.04300
N371        N  0.40179715  0.42615166  0.67386979     0.66800
H372        H  0.34267652  0.43713407  0.67207142     0.15700
H373        H  0.40486141  0.03133247  0.66777790     0.15400
N374        N  0.34594161  0.04255384  0.66807342     0.74500
O375        O  0.40455258  0.41722953  0.69218203    -0.38900
O376        O  0.40497331  0.40705566  0.65943132    -0.38900
O377        O  0.34350115  0.05647636  0.68499783    -0.39600
O378        O  0.34279359  0.05732551  0.65158051    -0.39600
C379        C  0.10624334  0.01013782  0.67179102    -0.11900
C380        C  0.09125056  0.48327029  0.66713689     0.05100
C381        C  0.10939233  0.45749768  0.66195114    -0.07200
C382        C  0.14141236  0.45987508  0.66193165    -0.08000
C383        C  0.15617107  0.48754877  0.66691035    -0.02500
C384        C  0.13830267  0.01237659  0.67197827     0.04300
N385        N  0.15198001  0.04070749  0.67820270     0.66800
H386        H  0.09280707  0.03015678  0.67620241     0.15700
H387        H  0.15484955  0.43975147  0.65773686     0.15400
N388        N  0.09582383  0.42890687  0.65619975     0.74500
O389        O  0.15653127  0.06126655  0.66498585    -0.38900
O390        O  0.15214191  0.04788700  0.69696439    -0.38900
O391        O  0.09279899  0.42232971  0.63743466    -0.39600
O392        O  0.09323133  0.90705870  0.66646457    -0.39600
C393        C  0.27829706  0.27594209  0.75972460    -0.11900
C394        C  0.25833847  0.25579654  0.76975154     0.05100
C395        C  0.23885910  0.23675489  0.75795444    -0.07200
C396        C  0.24008796  0.23782210  0.73649343    -0.08000
C397        C  0.25963257  0.25841668  0.72651125    -0.02500
C398        C  0.27870385  0.27782624  0.73831786     0.04300
N399        N  0.29900688  0.29916644  0.72880804     0.66800
H400        H  0.29330775  0.29089165  0.76862978     0.15700
H401        H  0.22506710  0.22293550  0.72754705     0.15400
N402        N  0.21851622  0.21551258  0.76747823     0.74500
O403        O  0.29048517  0.32665391  0.72655328    -0.38900
O404        O  0.32715099  0.29249880  0.72713009    -0.38900
O405        O  0.19017546  0.22169888  0.76840844    -0.39600
O406        O  0.22741147  0.18826698  0.77027141    -0.39600
C407        C  0.28561206  0.39782297  0.82908111    -0.11900
C408        C  0.25817870  0.41389122  0.83278103     0.05100
C409        C  0.23066883  0.39704536  0.83521301    -0.07200
C410        C  0.23140064  0.36489125  0.83429320    -0.08000
C411        C  0.25903771  0.34888261  0.83084690    -0.02500
C412        C  0.28631381  0.36589023  0.82793127     0.04300
N413        N  0.31493245  0.35131473  0.82324566     0.66800
H414        H  0.30699655  0.41016199  0.82667610     0.15700
H415        H  0.21008345  0.35236279  0.83653155     0.15400
N416        N  0.20189455  0.41200975  0.83883763     0.74500
O417        O  0.32210943  0.34689152  0.80472795    -0.38900
O418        O  0.33544593  0.34944118  0.83693762    -0.38900
O419        O  0.18293366  0.41494619  0.82426239    -0.39600
O420        O  0.19293408  0.41612632  0.85703238    -0.39600
C421        C  0.23684226  0.11390548  0.82799450    -0.11900
C422        C  0.26492093  0.09886121  0.83171773     0.05100
C423        C  0.29143660  0.11676710  0.83545083    -0.07200
C424        C  0.28930508  0.14882767  0.83529731    -0.08000
C425        C  0.26116065  0.16383819  0.83164191    -0.02500
C426        C  0.23467837  0.14590053  0.82792925     0.04300
N427        N  0.20544856  0.15961405  0.82369523     0.66800
H428        H  0.21612155  0.10070480  0.82494973     0.15700
H429        H  0.30998434  0.16208710  0.83836708     0.15400
N430        N  0.32049570  0.10296779  0.84007511     0.74500
O431        O  0.19688368  0.16283424  0.80531588    -0.38900
O432        O  0.18581403  0.16167015  0.83784181    -0.38900
O433        O  0.34084636  0.10155585  0.82634856    -0.39600
O434        O  0.32811018  0.09895770  0.85857604    -0.39600
C435        C  0.23580256  0.01559422  0.76073013    -0.11900
C436        C  0.25758986  0.49951342  0.77078371     0.05100
C437        C  0.26964117  0.47380811  0.76037581    -0.07200
C438        C  0.26662474  0.47162343  0.73900960    -0.08000
C439        C  0.25149313  0.49463674  0.72776297    -0.02500
C440        C  0.23164930  0.01245753  0.73955692     0.04300
N441        N  0.20499258  0.02562860  0.73019709     0.66800
H442        H  0.21910371  0.02885890  0.76943406     0.15700
H443        H  0.27620150  0.45175375  0.73117022     0.15400
N444        N  0.28308450  0.44885615  0.77143364     0.74500
O445        O  0.18056222  0.01010708  0.72925807    -0.38900
O446        O  0.20378445  0.05424521  0.72744294    -0.38900
O447        O  0.26623258  0.42708557  0.77732260    -0.39600
O448        O  0.31193743  0.44571851  0.77183850    -0.39600
C449        C  0.47839137  0.23590545  0.73845533    -0.11900
C450        C  0.00347293  0.25136121  0.72998920     0.05100
C451        C  0.02745855  0.26133506  0.74290738    -0.07200
C452        C  0.02565075  0.25627243  0.76408614    -0.08000
C453        C  0.99996751  0.24171070  0.77275245    -0.02500
C454        C  0.47622884  0.23128847  0.75963119     0.04300
N455        N  0.44988482  0.21575680  0.76745466     0.66800
H456        H  0.45996696  0.22778848  0.72851733     0.15700
H457        H  0.04424742  0.26439217  0.77385746     0.15400
N458        N  0.05418903  0.27568434  0.73465951     0.74500
O459        O  0.42515709  0.23047345  0.77006158    -0.38900
O460        O  0.44941812  0.18681262  0.76753130    -0.38900
O461        O  0.05669027  0.30449585  0.73542203    -0.39600
O462        O  0.07736102  0.25953242  0.73016966    -0.39600
C463        C  0.46712773  0.38107610  0.82901519    -0.11900
C464        C  0.99421884  0.39670624  0.83436650     0.05100
C465        C  0.02063739  0.37945650  0.83962425    -0.07200
C466        C  0.01945065  0.34743529  0.83926705    -0.08000
C467        C  0.99238288  0.33182492  0.83382880    -0.02500
C468        C  0.46591483  0.34906473  0.82871081     0.04300
N469        N  0.43771397  0.33466758  0.82286299     0.66800
H470        H  0.44652979  0.39383933  0.82480169     0.15700
H471        H  0.04003469  0.33469301  0.84353536     0.15400
N472        N  0.04857129  0.39386311  0.84602293     0.74500
O473        O  0.41697129  0.33099362  0.83611316    -0.38900
O474        O  0.43100115  0.33220633  0.80407991    -0.38900
O475        O  0.05487410  0.39525256  0.86490441    -0.39600
O476        O  0.06978470  0.39772553  0.83313903    -0.39600
C477        C  0.02189567  0.09731963  0.83569430    -0.11900
C478        C  0.99355695  0.08190061  0.83488088     0.05100
C479        C  0.46617462  0.09949583  0.83506900    -0.07200
C480        C  0.46769247  0.13149843  0.83534218    -0.08000
C481        C  0.99596098  0.14699006  0.83573263    -0.02500
C482        C  0.02338109  0.12942507  0.83632022     0.04300
N483        N  0.05291813  0.14359079  0.83783428     0.66800
H484        H  0.04329287  0.08436832  0.83599871     0.15700
H485        H  0.44623105  0.14434551  0.83520101     0.15400
N486        N  0.43649431  0.08549928  0.83509990     0.74500
O487        O  0.06419106  0.14906593  0.85533339    -0.38900
O488        O  0.07017763  0.14416826  0.82232076    -0.38900
O489        O  0.42160108  0.08417565  0.85165324    -0.39600
O490        O  0.42261002  0.08126513  0.81829800    -0.39600
C491        C  0.01981755  0.97255017  0.76182384    -0.11900
C492        C  0.99455489  0.48559970  0.77193094     0.05100
C493        C  0.46746895  0.48307241  0.75986932    -0.07200
C494        C  0.46945094  0.48123795  0.73847698    -0.08000
C495        C  0.99783680  0.48151312  0.72870295    -0.02500
C496        C  0.02127398  0.97048139  0.74037866     0.04300
N497        N  0.04619026  0.95426486  0.73099921     0.66800
H498        H  0.03755614  0.96149339  0.77092305     0.15700
H499        H  0.44851993  0.47993433  0.72941308     0.15400
N500        N  0.43763483  0.48252193  0.76897093     0.74500
O501        O  0.06734692  0.96891871  0.72219716    -0.38900
O502        O  0.04489614  0.92547807  0.72910610    -0.38900
O503        O  0.42151601  0.50664378  0.76917814    -0.39600
O504        O  0.42514175  0.45706172  0.77271674    -0.39600
C505        C  0.28515301  0.26762017  0.92651504    -0.11900
C506        C  0.25899687  0.25711136  0.93692611     0.05100
C507        C  0.23387503  0.24600800  0.92531100    -0.07200
C508        C  0.23488966  0.24673193  0.90383580    -0.08000
C509        C  0.26090402  0.25753884  0.89340579    -0.02500
C510        C  0.28641986  0.26780350  0.90503640     0.04300
N511        N  0.31347257  0.27932021  0.89538077     0.66800
H512        H  0.30480465  0.27619244  0.93512230     0.15700
H513        H  0.21534468  0.23791108  0.89523726     0.15400
N514        N  0.20798391  0.23214895  0.93498862     0.74500
O515        O  0.31581583  0.30772864  0.89209049    -0.38900
O516        O  0.33715979  0.26258006  0.89439092    -0.38900
O517        O  0.18243008  0.24594767  0.93502968    -0.39600
O518        O  0.20899729  0.20399403  0.93941117    -0.39600
C519        C  0.28701818  0.36657534  0.99213063    -0.11900
C520        C  0.26083439  0.35141638  0.99944647     0.05100
C521        C  0.23596710  0.36912219  0.00690212    -0.07200
C522        C  0.23746550  0.40118808  0.00647474    -0.08000
C523        C  0.26353838  0.41636475  0.99900450    -0.02500
C524        C  0.28861242  0.39864894  0.99183063     0.04300
N525        N  0.31541608  0.41273121  0.98347962     0.66800
H526        H  0.30637433  0.35341978  0.98626104     0.15700
H527        H  0.21814767  0.41432991  0.01240977     0.15400
N528        N  0.20960781  0.35501812  0.01583293     0.74500
O529        O  0.33889399  0.41626686  0.99467490    -0.38900
O530        O  0.31787943  0.41532645  0.96428158    -0.38900
O531        O  0.20835094  0.35191750  0.03505315    -0.39600
O532        O  0.18545042  0.35182928  0.00525793    -0.39600
C533        C  0.28657699  0.15094379  0.99897937    -0.11900
C534        C  0.25825288  0.16646597  0.99944366     0.05100
C535        C  0.23087996  0.14902032  0.00012125    -0.07200
C536        C  0.23244738  0.11693994  0.00012415    -0.08000
C537        C  0.26081940  0.10144697  0.99958493    -0.02500
C538        C  0.28815947  0.11894179  0.99904671     0.04300
N539        N  0.31782952  0.10477834  0.99841054     0.66800
H540        H  0.30798530  0.16372787  0.99847117     0.15700
H541        H  0.21108601  0.10407715  0.00066036     0.15400
N542        N  0.20128272  0.16331209  0.00097498     0.74500
O543        O  0.33030007  0.09963989  0.98128601    -0.38900
O544        O  0.33395299  0.10367332  0.01453224    -0.38900
O545        O  0.18498131  0.16471300  0.98494391    -0.39600
O546        O  0.18906008  0.16838959  0.01818839    -0.39600
C547        C  0.29282847  0.51089607  0.92685430    -0.11900
C548        C  0.26463353  0.50908380  0.93724933     0.05100
C549        C  0.23543349  0.00891979  0.92564991    -0.07200
C550        C  0.23737433  0.00860763  0.90426941    -0.08000
C551        C  0.26656399  0.50957633  0.89379712    -0.02500
C552        C  0.29406128  0.51133798  0.90538879     0.04300
N553        N  0.32338187  0.51409380  0.89575544     0.66800
H554        H  0.31427173  0.51220508  0.93543540     0.15700
H555        H  0.21606372  0.00805748  0.89550003     0.15400
N556        N  0.20559874  0.00879283  0.93478958     0.74500
O557        O  0.33432934  0.54044220  0.89262656    -0.38900
O558        O  0.34087661  0.49098797  0.89477014    -0.38900
O559        O  0.19061095  0.03356066  0.93607646    -0.39600
O560        O  0.19496324  0.48073440  0.93758428    -0.39600
C561        C  0.46042198  0.25069611  0.92817156    -0.11900
C562        C  0.98695602  0.24428259  0.93972717     0.05100
C563        C  0.01437779  0.23658588  0.92921953    -0.07200
C564        C  0.01471057  0.23574805  0.90777264    -0.08000
C565        C  0.98824158  0.24234242  0.89619550    -0.02500
C566        C  0.46079918  0.24992817  0.90667920     0.04300
N567        N  0.43331861  0.25789124  0.89582624     0.66800
H568        H  0.43911530  0.25683599  0.93586689     0.15700
H569        H  0.03604243  0.22954256  0.90012455     0.15400
N570        N  0.04198683  0.22875829  0.93999208     0.74500
O571        O  0.41256604  0.23801588  0.89338777    -0.38900
O572        O  0.42713479  0.28579373  0.89268990    -0.38900
O573        O  0.04856690  0.20086876  0.94281707    -0.39600
O574        O  0.06255297  0.24881919  0.94247385    -0.39600
C575        C  0.45873099  0.38952695  0.00015346    -0.11900
C576        C  0.98699693  0.40435674  0.00348557     0.05100
C577        C  0.01342638  0.38620829  0.00707143    -0.07200
C578        C  0.01134003  0.35421235  0.00637358    -0.08000
C579        C  0.98325104  0.33938610  0.00243393    -0.02500
C580        C  0.45655817  0.35749309  0.99969961     0.04300
N581        N  0.42707947  0.34397629  0.99620361     0.66800
H582        H  0.43794689  0.40291246  0.99761038     0.15700
H583        H  0.03209507  0.34087082  0.00909895     0.15400
N584        N  0.04246604  0.39971404  0.01194077     0.74500
O585        O  0.41723873  0.34104268  0.97806874    -0.38900
O586        O  0.40856683  0.34143633  0.01096355    -0.38900
O587        O  0.05081894  0.40162970  0.03046275    -0.39600
O588        O  0.56210478  0.40320422  0.99775983    -0.39600
C589        C  0.01308691  0.13902841  0.00087143    -0.11900
C590        C  0.98444427  0.15415548  0.00088122     0.05100
C591        C  0.45742632  0.13621663  0.99977975    -0.07200
C592        C  0.45955444  0.10422830  0.99888358    -0.08000
C593        C  0.98814485  0.08909489  0.99907468    -0.02500
C594        C  0.01520262  0.10696151  0.99995275     0.04300
N595        N  0.04503293  0.09311275  0.00001185     0.66800
H596        H  0.03426019  0.15217309  0.00154924     0.15700
H597        H  0.43833238  0.09116405  0.99818416     0.15400
N598        N  0.42753197  0.14993315  0.99962249     0.74500
O599        O  0.05933158  0.09002302  0.98331797    -0.38900
O600        O  0.05943546  0.09025586  0.01674443    -0.38900
O601        O  0.41321366  0.15260166  0.98284371    -0.39600
O602        O  0.41307456  0.15289451  0.01626503    -0.39600
C603        C  0.01191372  0.47860424  0.92927697    -0.11900
C604        C  0.98627761  0.99098973  0.93865587     0.05100
C605        C  0.45998604  0.99683273  0.92640749    -0.07200
C606        C  0.46217297  0.99558854  0.90498045    -0.08000
C607        C  0.98927490  0.48899147  0.89579835    -0.02500
C608        C  0.01340235  0.47686255  0.90788199     0.04300
N609        N  0.53864064  0.46090716  0.89880298     0.66800
H610        H  0.03077157  0.46914384  0.93821642     0.15700
H611        H  0.44182955  0.00083274  0.89590723     0.15400
N612        N  0.93106140  0.00475217  0.93536453     0.74500
O613        O  0.06388064  0.47465914  0.89643772    -0.38900
O614        O  0.53828761  0.43197085  0.89854599    -0.38900
O615        O  0.92258171  0.03245997  0.93572947    -0.39600
O616        O  0.41151325  0.98382490  0.93844495    -0.39600
C617        C  0.23394065  0.25111381  0.57056299    -0.11900
C618        C  0.24919243  0.27512481  0.56060064     0.05100
C619        C  0.26173616  0.29922382  0.57247896    -0.07200
C620        C  0.26080814  0.29753479  0.59395865    -0.08000
C621        C  0.24700637  0.27250914  0.60384067    -0.02500
C622        C  0.23222008  0.24992044  0.59189870     0.04300
N623        N  0.21407302  0.22649548  0.60116334     0.66800
H624        H  0.22280790  0.23311536  0.56165706     0.15700
H625        H  0.27183670  0.31548726  0.60296413     0.15400
N626        N  0.27661597  0.32475768  0.56310488     0.74500
O627        O  0.18633702  0.23207092  0.60550193    -0.38900
O628        O  0.22345451  0.19908019  0.60090686    -0.38900
O629        O  0.26258811  0.35008131  0.56187144    -0.39600
O630        O  0.30532231  0.32395705  0.56034755    -0.39600
C631        C  0.25070834  0.45464805  0.57150931    -0.11900
C632        C  0.24856848  0.48227698  0.56052922     0.05100
C633        C  0.25249305  0.00666732  0.57200143    -0.07200
C634        C  0.25194720  0.00702409  0.59344949    -0.08000
C635        C  0.24802244  0.48210645  0.60416378    -0.02500
C636        C  0.25053700  0.45427661  0.59303454     0.04300
N637        N  0.25332563  0.42541952  0.60320386     0.66800
H638        H  0.25261673  0.43296311  0.56334768     0.15700
H639        H  0.25396978  0.02901494  0.60123606     0.15400
N640        N  0.25587988  0.03524715  0.56157626     0.74500
O641        O  0.22965760  0.40919150  0.60572357    -0.38900
O642        O  0.27956711  0.41329658  0.60515580    -0.38900
O643        O  0.23275822  0.05250685  0.55934397    -0.39600
O644        O  0.28246403  0.04605881  0.55893103    -0.39600
C645        C  0.35914542  0.29719211  0.49980012    -0.11900
C646        C  0.34402894  0.26882091  0.49837499     0.05100
C647        C  0.36193184  0.24177508  0.49711639    -0.07200
C648        C  0.39402031  0.24355262  0.49822960    -0.08000
C649        C  0.40911909  0.27189689  0.50012180    -0.02500
C650        C  0.39121958  0.29903403  0.50048011     0.04300
N651        N  0.40503381  0.32872450  0.50134462     0.66800
H652        H  0.34597390  0.31840586  0.50048990     0.15700
H653        H  0.40722312  0.22237661  0.49733105     0.15400
N654        N  0.34812607  0.21241001  0.49400065     0.74500
O655        O  0.40881519  0.34169187  0.51850077    -0.38900
O656        O  0.40708417  0.34435182  0.48514562    -0.38900
O657        O  0.34487240  0.20228785  0.47596399    -0.39600
O658        O  0.34566441  0.19424131  0.50892803    -0.39600
C659        C  0.14278349  0.29394313  0.49067167    -0.11900
C660        C  0.15889948  0.27052892  0.50088810     0.05100
C661        C  0.14224886  0.24809085  0.51172943    -0.07200
C662        C  0.11011804  0.24890796  0.51169250    -0.08000
C663        C  0.09405155  0.27204244  0.50128647    -0.02500
C664        C  0.11059914  0.29473758  0.49064029     0.04300
N665        N  0.09501100  0.31773510  0.47890596     0.66800
H666        H  0.15526254  0.31129610  0.48212162     0.15700
H667        H  0.09760602  0.23164652  0.52030974     0.15400
N668        N  0.15760362  0.22544437  0.52384410     0.74500
O669        O  0.09389233  0.34503536  0.48536920    -0.38900
O670        O  0.08070017  0.31040214  0.46274081    -0.38900
O671        O  0.16354974  0.23113405  0.54243285    -0.39600
O672        O  0.15944816  0.19820974  0.51733794    -0.39600
C673        C  0.51345367  0.24640014  0.59614048    -0.11900
C674        C  0.00333968  0.27203121  0.60737749     0.05100
C675        C  0.99327814  0.29830525  0.59660153    -0.07200
C676        C  0.99347084  0.29843101  0.57502987    -0.08000
C677        C  0.00314884  0.27252706  0.56383974    -0.02500
C678        C  0.51339899  0.24635232  0.57473951     0.04300
N679        N  0.52452295  0.21961377  0.56435236     0.66800
H680        H  0.52165175  0.22608359  0.60394190     0.15700
H681        H  0.98537223  0.31861440  0.56704370     0.15400
N682        N  0.98177221  0.32461699  0.60720756     0.74500
O683        O  0.50688814  0.19694380  0.56186584    -0.38900
O684        O  0.55306986  0.21625326  0.56167145    -0.38900
O685        O  0.99933319  0.34709625  0.61048609    -0.39600
O686        O  0.95316140  0.32774397  0.60970203    -0.39600
C687        C  0.35467160  0.00344401  0.50407518    -0.11900
C688        C  0.33964653  0.48093408  0.49805984     0.05100
C689        C  0.35790211  0.45435076  0.49546928    -0.07200
C690        C  0.38994206  0.45665977  0.49611177    -0.08000
C691        C  0.40455446  0.48498314  0.49943069    -0.02500
C692        C  0.38672423  0.00539186  0.50478916     0.04300
N693        N  0.39968498  0.54078451  0.50626075     0.66800
H694        H  0.34125277  0.02343915  0.50856339     0.15700
H695        H  0.40347537  0.43590144  0.49394790     0.15400
N696        N  0.34418686  0.92227864  0.48620886     0.74500
O697        O  0.40443572  0.05504390  0.49950484    -0.38900
O698        O  0.40209082  0.54992494  0.52458477    -0.38900
O699        O  0.34181756  0.91666862  0.46726480    -0.39600
O700        O  0.34076315  0.40702512  0.50706238    -0.39600
C701        C  0.10452850  0.45695213  0.50135530    -0.11900
C702        C  0.08962727  0.48558908  0.50047917     0.05100
C703        C  0.10774590  0.00547448  0.50423289    -0.07200
C704        C  0.13980726  0.00336000  0.50419254    -0.08000
C705        C  0.15462208  0.48142886  0.50010587    -0.02500
C706        C  0.13657237  0.45460504  0.50124913     0.04300
N707        N  0.15021358  0.42478898  0.50245510     0.66800
H708        H  0.09121794  0.43591544  0.50218290     0.15700
H709        H  0.15302632  0.02401571  0.50723854     0.15400
N710        N  0.09389998  0.03449561  0.50867886     0.74500
O711        O  0.15514011  0.41296962  0.51980976    -0.38900
O712        O  0.15128328  0.40809804  0.48661676    -0.38900
O713        O  0.09071693  0.04281560  0.52711156    -0.39600
O714        O  0.09073232  0.05396236  0.49453850    -0.39600
C715        C  0.49485365  0.45840194  0.57200517    -0.11900
C716        C  0.99658913  0.48671668  0.56201061     0.05100
C717        C  0.99319526  0.00780847  0.57316162    -0.07200
C718        C  0.99363406  0.00663455  0.59457043    -0.08000
C719        C  0.99719555  0.48308814  0.60544045    -0.02500
C720        C  0.49499817  0.45633476  0.59337430     0.04300
N721        N  0.49287492  0.42665710  0.60244925     0.66800
H722        H  0.49321323  0.43728974  0.56317242     0.15700
H723        H  0.99052240  0.02790328  0.60306271     0.15400
N724        N  0.98804799  0.03680800  0.56354987     0.74500
O725        O  0.46682196  0.41444485  0.60469640    -0.38900
O726        O  0.51683491  0.41048689  0.60430347    -0.38900
O727        O  0.96096661  0.04704459  0.56192526    -0.39600
O728        O  0.01046689  0.05453041  0.56052028    -0.39600
C729        C  0.25836670  0.23477891  0.40529406    -0.11900
C730        C  0.24913027  0.26065322  0.39404236     0.05100
C731        C  0.23899653  0.28699543  0.40475523    -0.07200
C732        C  0.23952329  0.28741273  0.42619190    -0.08000
C733        C  0.24945294  0.26183398  0.43746655    -0.02500
C734        C  0.25848954  0.23502905  0.42676405     0.04300
N735        N  0.26876892  0.20818594  0.43732603     0.66800
H736        H  0.26612125  0.21419548  0.39737141     0.15700
H737        H  0.23172087  0.30800038  0.43408484     0.15400
N738        N  0.22696849  0.31310947  0.39420362     0.74500
O739        O  0.24980029  0.18710002  0.44109752    -0.38900
O740        O  0.29721308  0.20255427  0.43846543    -0.38900
O741        O  0.19824143  0.31578916  0.39193819    -0.39600
O742        O  0.24392370  0.33618139  0.39150473    -0.39600
C743        C  0.24062933  0.00341138  0.42760452    -0.11900
C744        C  0.24486725  0.48010709  0.43656595     0.07500
C745        C  0.24563091  0.45327653  0.42432734    -0.07200
C746        C  0.24582022  0.45564206  0.40290070    -0.08000
C747        C  0.24503453  0.48430197  0.39309361    -0.02500
C748        C  0.23990821  0.00616589  0.40627187     0.04300
N749        N  0.23588885  0.03604772  0.39768413     0.66800
H750        H  0.23880431  0.02424633  0.43670665     0.15700
H751        H  0.24675497  0.43466506  0.39388545     0.15400
N752        N  0.24632677  0.42340477  0.43325543     0.74500
O753        O  0.20904301  0.04655008  0.39524094    -0.38900
O754        O  0.25852398  0.05405502  0.39685925    -0.38900
O755        O  0.22178803  0.40808472  0.43420499    -0.39600
O756        O  0.27182040  0.40991855  0.43557712    -0.39600
C757        C  0.99375973  0.24184313  0.40828779    -0.11900
C758        C  0.00708959  0.26565632  0.39696436     0.05100
C759        C  0.51652817  0.29276002  0.40753171    -0.07200
C760        C  0.51419449  0.29431217  0.42897280    -0.08000
C761        C  0.00240511  0.26975553  0.44020820    -0.02500
C762        C  0.99101657  0.24380913  0.42962254     0.04300
N763        N  0.97555592  0.21972277  0.44025527     0.66800
H764        H  0.98444310  0.22190617  0.40047471     0.15700
H765        H  0.52213724  0.31477295  0.43686212     0.15400
N766        N  0.52958237  0.31816162  0.39689082     0.74500
O767        O  0.94994748  0.22481081  0.44869842    -0.38900
O768        O  0.98829424  0.19384222  0.44221238    -0.38900
O769        O  0.51304292  0.34122023  0.39287972    -0.39600
O770        O  0.55842920  0.32012591  0.39527979    -0.39600
C771        C  0.39663883  0.28526705  0.33461242    -0.11900
C772        C  0.41250526  0.25741669  0.33706746     0.05100
C773        C  0.39533893  0.23012720  0.33933665    -0.07200
C774        C  0.36320280  0.23126895  0.33888123    -0.08000
C775        C  0.34736123  0.25907428  0.33607903    -0.02500
C776        C  0.36453928  0.28638513  0.33403672     0.04300
N777        N  0.34997642  0.31543779  0.33092195     0.66800
H778        H  0.40923689  0.30658852  0.33278584     0.15700
H779        H  0.35057208  0.20993634  0.34056726     0.15400
N780        N  0.40995528  0.20100189  0.34202990     0.74500
O781        O  0.34555825  0.33297676  0.34607393    -0.38900
O782        O  0.34789224  0.32609725  0.31299374    -0.38900
O783        O  0.41191815  0.18970844  0.35978796    -0.39600
O784        O  0.41417264  0.18390563  0.32662692    -0.39600
C785        C  0.11264198  0.23124068  0.33044420    -0.11900
C786        C  0.09740574  0.25965960  0.33168693     0.05100
C787        C  0.11503812  0.28680626  0.33146569    -0.07200
C788        C  0.14707761  0.28496113  0.33047517    -0.08000
C789        C  0.16238330  0.25651538  0.32974280    -0.02500
C790        C  0.14469125  0.22938729  0.32949173     0.04300
N791        N  0.15868537  0.19972149  0.32851837     0.66800
H792        H  0.09960685  0.21001305  0.33033398     0.15700
H793        H  0.16006560  0.30621387  0.33065174     0.15400
N794        N  0.10103210  0.31644802  0.33277234     0.74500
O795        O  0.16308466  0.18493452  0.34488384    -0.38900
O796        O  0.15983197  0.18578137  0.31153910    -0.38900
O797        O  0.09985505  0.32998440  0.34989594    -0.39600
O798        O  0.09628212  0.33152677  0.31656962    -0.39600
C799        C  0.50456159  0.00631606  0.40539181    -0.11900
C800        C  0.99554691  0.48140535  0.39493524     0.05100
C801        C  0.99269178  0.45443805  0.40673583    -0.07200
C802        C  0.99336273  0.45629959  0.42819765    -0.08000
C803        C  0.99639825  0.48466690  0.43836445    -0.02500
C804        C  0.50519635  0.00707627  0.42677635     0.04300
N805        N  0.51524701  0.03455370  0.43670876     0.66800
H806        H  0.51216568  0.02649151  0.39712252     0.15700
H807        H  0.99118946  0.43525920  0.43694771     0.15400
N808        N  0.98848224  0.42510082  0.39731405     0.74500
O809        O  0.54366036  0.03938407  0.43897916    -0.38900
O810        O  0.49644358  0.05634475  0.43922912    -0.38900
O811        O  0.01111396  0.40707775  0.39573971    -0.39600
O812        O  0.96159990  0.41486985  0.39477901    -0.39600
C813        C  0.38738365  0.01001391  0.32468541    -0.11900
C814        C  0.40466071  0.48245359  0.33177071     0.05100
C815        C  0.38668771  0.45611227  0.33544876    -0.07200
C816        C  0.35460773  0.45840942  0.33530387    -0.08000
C817        C  0.33964251  0.48649287  0.33154512    -0.02500
C818        C  0.35521580  0.01118113  0.32460737     0.04300
N819        N  0.34026122  0.03713198  0.31563161     0.66800
H820        H  0.40008231  0.02933340  0.31853586     0.15700
H821        H  0.34131606  0.43786262  0.33837487     0.15400
N822        N  0.40039676  0.42700838  0.33982520     0.74500
O823        O  0.33667884  0.06123632  0.32613624    -0.38900
O824        O  0.33686125  0.03822346  0.29641148    -0.38900
O825        O  0.40281009  0.41843410  0.35823394    -0.39600
O826        O  0.40287601  0.40740282  0.32563291    -0.39600
C827        C  0.13761562  0.01052182  0.32730742    -0.11900
C828        C  0.15459293  0.48526950  0.33146946     0.05100
C829        C  0.13809417  0.45818791  0.33590040    -0.07200
C830        C  0.10600636  0.45885299  0.33651795    -0.08000
C831        C  0.08959081  0.48606062  0.33295319    -0.02500
C832        C  0.10553809  0.01220816  0.32816050     0.04300
N833        N  0.09104494  0.04105310  0.32410267     0.66800
H834        H  0.15035244  0.03129621  0.32387216     0.15700
H835        H  0.09385886  0.43777744  0.34008115     0.15400
N836        N  0.15343982  0.42996433  0.34043473     0.74500
O837        O  0.08551457  0.05901580  0.33885927    -0.38900
O838        O  0.09150065  0.05162629  0.30611705    -0.38900
O839        O  0.15794560  0.42254398  0.35890067    -0.39600
O840        O  0.15636838  0.40996260  0.32653265    -0.39600
C841        C  0.28650634  0.25402770  0.09389283    -0.11900
C842        C  0.25827015  0.25487011  0.10427309     0.05100
C843        C  0.23090430  0.25791945  0.09261681    -0.07200
C844        C  0.23231166  0.25943702  0.07121647    -0.08000
C845        C  0.26050364  0.25828160  0.06080618    -0.02500
C846        C  0.28793434  0.25584384  0.07247894     0.04300
N847        N  0.31750556  0.25530616  0.06298477     0.66800
H848        H  0.30791601  0.25200031  0.10246149     0.15700
H849        H  0.21088370  0.26159200  0.06268589     0.15400
N850        N  0.20143186  0.26007692  0.10215074     0.74500
O851        O  0.33216150  0.28006323  0.06100347    -0.38900
O852        O  0.33154991  0.23009352  0.06102940    -0.38900
O853        O  0.18926220  0.28612838  0.10469495    -0.39600
O854        O  0.18502780  0.23635784  0.10363847    -0.39600
C855        C  0.28231614  0.23963204  0.23866571    -0.11900
C856        C  0.25749627  0.25260528  0.22786117     0.05100
C857        C  0.23304004  0.26606901  0.23899435    -0.07200
C858        C  0.23414050  0.26676115  0.26041212    -0.08000
C859        C  0.25878669  0.25361741  0.27109803    -0.02500
C860        C  0.28295318  0.23968435  0.26014069     0.04300
N861        N  0.30875748  0.22655353  0.27056933     0.66800
H862        H  0.30129611  0.22909082  0.23038131     0.15700
H863        H  0.21536596  0.27749395  0.26881754     0.15400
N864        N  0.20737078  0.27995943  0.22885336     0.74500
O865        O  0.30917103  0.19812394  0.27414504    -0.38900
O866        O  0.33333737  0.24172790  0.27213798    -0.38900
O867        O  0.18194014  0.26607925  0.22834736    -0.39600
O868        O  0.20821930  0.30816319  0.22459843    -0.39600
C869        C  0.28776627  0.00084490  0.07193293    -0.11900
C870        C  0.26251759  0.51028399  0.06077883     0.05100
C871        C  0.23546145  0.51772662  0.07171760    -0.07200
C872        C  0.23501131  0.51521809  0.09305399    -0.08000
C873        C  0.26130216  0.50635577  0.10409126    -0.02500
C874        C  0.28840924  0.99903526  0.09336850     0.04300
N875        N  0.31656364  0.99042943  0.10319694     0.66800
H876        H  0.30865781  0.99550742  0.06351452     0.15700
H877        H  0.21386604  0.52089522  0.10107608     0.15400
N878        N  0.20856357  0.52908013  0.06156613     0.74500
O879        O  0.32298433  0.96235586  0.10526874    -0.38900
O880        O  0.33754769  0.01012957  0.10538849    -0.38900
O881        O  0.18528577  0.51203563  0.05979255    -0.39600
O882        O  0.20574837  0.55756148  0.05864321    -0.39600
C883        C  0.28176343  0.39417234  0.16897070    -0.11900
C884        C  0.25392421  0.40952437  0.16508946     0.05100
C885        C  0.22696382  0.39191919  0.16212055    -0.07200
C886        C  0.22851318  0.35984269  0.16286135    -0.08000
C887        C  0.25646449  0.34453302  0.16653297    -0.02500
C888        C  0.28330641  0.36218789  0.16976319     0.04300
N889        N  0.31236540  0.34819516  0.17411471     0.66800
H890        H  0.30276428  0.40708379  0.17156503     0.15700
H891        H  0.20755015  0.34683542  0.16033400     0.15400
N892        N  0.19787542  0.40602946  0.15805262     0.74500
O893        O  0.33106944  0.34343646  0.15968567    -0.38900
O894        O  0.32170212  0.34671000  0.19243960    -0.38900
O895        O  0.18812823  0.40744015  0.13982027    -0.39600
O896        O  0.17942748  0.41063325  0.17265043    -0.39600
C897        C  0.28652658  0.11003593  0.16336170    -0.11900
C898        C  0.25918053  0.09447339  0.16792360     0.05100
C899        C  0.23246241  0.11185719  0.17227582    -0.07200
C900        C  0.23336240  0.14386971  0.17142182    -0.08000
C901        C  0.26051124  0.15949612  0.16651997    -0.02500
C902        C  0.28749227  0.14215489  0.16266554     0.04300
N903        N  0.31596375  0.15658713  0.15768267     0.66800
H904        H  0.30736717  0.09718397  0.16000355     0.15700
H905        H  0.21249121  0.15659869  0.17488264     0.15400
N906        N  0.20438681  0.09755303  0.17828169     0.74500
O907        O  0.33561035  0.16118205  0.17165260    -0.38900
O908        O  0.32405338  0.15833570  0.13915404    -0.38900
O909        O  0.19741893  0.09677516  0.19703964    -0.39600
O910        O  0.18383339  0.09255156  0.16497674    -0.39600
C911        C  0.26302690  0.47159952  0.23603910    -0.11900
C912        C  0.24921096  0.49705485  0.22670885     0.05100
C913        C  0.23893139  0.01954543  0.23976841    -0.07200
C914        C  0.23707821  0.01560098  0.26097087    -0.08000
C915        C  0.24794508  0.49052342  0.26964728    -0.02500
C916        C  0.26230579  0.46797373  0.25733304     0.04300
N917        N  0.27733973  0.44198183  0.26618473     0.66800
H918        H  0.27446444  0.45433632  0.22668169     0.15700
H919        H  0.22501815  0.03278200  0.27002363     0.15400
N920        N  0.22612586  0.04655554  0.23077182     0.74500
O921        O  0.26359053  0.41653530  0.26657465    -0.38900
O922        O  0.30600719  0.44277069  0.26925004    -0.38900
O923        O  0.19730562  0.04915456  0.22918099    -0.39600
O924        O  0.24281623  0.06998648  0.22874278    -0.39600
C925        C  0.45968418  0.25863159  0.09694409    -0.11900
C926        C  0.98647157  0.24813920  0.10690436     0.05100
C927        C  0.01128170  0.23764521  0.09482638    -0.07200
C928        C  0.00876551  0.23749053  0.07346335    -0.08000
C929        C  0.98207511  0.24796627  0.06347152    -0.02500
C930        C  0.45736957  0.25890881  0.07545605     0.04300
N931        N  0.43055599  0.27195661  0.06616570     0.66800
H932        H  0.44051812  0.26736843  0.10591311     0.15700
H933        H  0.02811069  0.22892151  0.06459339     0.15400
N934        N  0.03907993  0.22649223  0.10392439     0.74500
O935        O  0.40647924  0.25603360  0.06449577    -0.38900
O936        O  0.42888621  0.30066225  0.06390980    -0.38900
O937        O  0.54299497  0.19809106  0.10607075    -0.39600
O938        O  0.06195338  0.24412851  0.10544364    -0.39600
C939        C  0.47672171  0.27000406  0.26380643    -0.11900
C940        C  0.99988253  0.25317556  0.27374696     0.05100
C941        C  0.02043630  0.23549476  0.26189463    -0.07200
C942        C  0.01769633  0.23528554  0.24046827    -0.08000
C943        C  0.99445591  0.25210381  0.23052499    -0.02500
C944        C  0.47362467  0.26937391  0.24242236     0.04300
N945        N  0.45013233  0.28761461  0.23305264     0.66800
H946        H  0.46076135  0.28378868  0.27279341     0.15700
H947        H  0.03400187  0.22189057  0.23150551     0.15400
N948        N  0.04524417  0.21910206  0.27128345     0.74500
O949        O  0.42296845  0.27754977  0.23219276    -0.38900
O950        O  0.45500035  0.31572112  0.22985916    -0.38900
O951        O  0.04441523  0.19019202  0.27200909    -0.39600
O952        O  0.07026320  0.23276813  0.27484890    -0.39600
C953        C  0.01785326  0.50368812  0.09556402    -0.11900
C954        C  0.98845435  0.00073632  0.10564662     0.05100
C955        C  0.46095765  0.99695734  0.09431581    -0.07200
C956        C  0.46167897  0.99704147  0.07288103    -0.08000
C957        C  0.98935793  0.00067616  0.06219487    -0.02500
C958        C  0.01894465  0.50303432  0.07413743     0.04300
N959        N  0.04837250  0.50292233  0.06443401     0.66800
H960        H  0.03946604  0.50393644  0.10400533     0.15700
H961        H  0.44021935  0.99377313  0.06456711     0.15400
N962        N  0.43209475  0.99230029  0.10423062     0.74500
O963        O  0.06168640  0.52807019  0.06100928    -0.38900
O964        O  0.06360289  0.47826738  0.06350971    -0.38900
O965        O  0.41328412  0.01430515  0.10562621    -0.39600
O966        O  0.42301621  0.96532665  0.10763675    -0.39600
C967        C  0.01792754  0.39139163  0.16232518    -0.11900
C968        C  0.49051296  0.40730548  0.16634562     0.05100
C969        C  0.46372731  0.39030196  0.17085749    -0.07200
C970        C  0.46498593  0.35828294  0.17125980    -0.08000
C971        C  0.49242448  0.34234599  0.16727071    -0.02500
C972        C  0.01916178  0.35932721  0.16271878     0.04300
N973        N  0.04774045  0.34453793  0.15821952     0.66800
H974        H  0.03881438  0.40391374  0.15877497     0.15700
H975        H  0.44411244  0.34580776  0.17491203     0.15400
N976        N  0.43516229  0.40496237  0.17559093     0.74500
O977        O  0.05456389  0.33874519  0.13980848    -0.38900
O978        O  0.06846716  0.34348397  0.17180881    -0.38900
O979        O  0.41541344  0.40847975  0.16155793    -0.39600
O980        O  0.42670771  0.40664448  0.19404633    -0.39600
C981        C  0.01720203  0.14194888  0.16619396    -0.11900
C982        C  0.48926712  0.15744591  0.16937708     0.05100
C983        C  0.46229272  0.13993958  0.17213894    -0.07200
C984        C  0.46383244  0.10787158  0.17158921    -0.08000
C985        C  0.49178438  0.09237533  0.16829538    -0.02500
C986        C  0.01872648  0.10990968  0.16554336     0.04300
N987        N  0.04782337  0.09578794  0.16156557     0.66800
H988        H  0.03827596  0.15477524  0.16382893     0.15700
H989        H  0.44276078  0.09501646  0.17386871     0.15400
N990        N  0.43312808  0.15414201  0.17568330     0.74500
O991        O  0.05607811  0.09148009  0.14323856    -0.38900
O992        O  0.06768041  0.09449579  0.17571155    -0.38900
O993        O  0.41386497  0.15576401  0.16119297    -0.39600
O994        O  0.42421950  0.15842475  0.19387229    -0.39600
C995        C  0.01440327  0.01402541  0.23977138    -0.11900
C996        C  0.99530554  0.49197941  0.22890140     0.05100
C997        C  0.47870355  0.46918335  0.23922046    -0.07200
C998        C  0.48074024  0.46694867  0.26055180    -0.08000
C999        C  0.99890967  0.48732871  0.27182651    -0.02500
C1000       C  0.01581646  0.01245480  0.26117176     0.04300
N1001       N  0.03759303  0.03115272  0.27180477     0.66800
H1002       H  0.02918898  0.03005867  0.23175939     0.15700
H1003       H  0.46759604  0.44935883  0.26838358     0.15400
N1004       N  0.46076065  0.44720687  0.22823402     0.74500
O1005       O  0.06554469  0.02328732  0.27170645    -0.38900
O1006       O  0.03058978  0.05853317  0.27612447    -0.38900
O1007       O  0.47195664  0.42092016  0.22489234    -0.39600
O1008       O  0.43207650  0.45116949  0.22677442    -0.39600
O1009       O  0.01755365  0.54287820  0.16821864    -0.71400
O1010       O  0.01557208  0.95608275  0.16703750    -0.71600
O1011       O  0.01545086  0.50055605  0.13836504    -0.71500
O1012       O  0.01742988  0.99962616  0.19601139    -0.71500
O1013       O  0.46833445  0.49611389  0.19723668    -0.71500
O1014       O  0.46485957  0.00144554  0.13878296    -0.71500
O1015       O  0.46577655  0.95658181  0.16689354    -0.71400
O1016       O  0.46782440  0.54349378  0.17056822    -0.71600
V1017       V  0.01585211  0.49929288  0.16735863     1.35200
V1018       V  0.46721923  0.00003338  0.16781372     1.35200
C1019       C  0.49288122  0.55816112  0.16968775     0.77800
C1020       C  0.49058540  0.94141748  0.16710165     0.77900
C1021       C  0.99015891  0.50267761  0.12884362     0.77700
C1022       C  0.99289025  0.99794314  0.20626701     0.77700
O1023       O  0.46794091  0.75373187  0.19865032    -0.71400
O1024       O  0.46471636  0.74816896  0.14047900    -0.71600
O1025       O  0.46559710  0.70706666  0.17129478    -0.71500
O1026       O  0.46734311  0.79406542  0.16793245    -0.71500
O1027       O  0.01716962  0.79306396  0.16797723    -0.71500
O1028       O  0.01532899  0.70612591  0.16895654    -0.71500
O1029       O  0.01450028  0.74878477  0.13926483    -0.71400
O1030       O  0.01774774  0.75050598  0.19760102    -0.71600
V1031       V  0.46735011  0.75066824  0.16955307     1.35200
V1032       V  0.01522864  0.74959353  0.16846973     1.35200
C1033       C  0.99340163  0.75325454  0.20804415     0.77800
C1034       C  0.98898860  0.74818088  0.12985012     0.77900
C1035       C  0.49026614  0.69162326  0.17045475     0.77700
C1036       C  0.49257415  0.80846416  0.16776321     0.77700
O1037       O  0.28129083  0.99948832  0.19616941    -0.71400
O1038       O  0.28295728  0.50345525  0.13783988    -0.71600
O1039       O  0.28006851  0.54517509  0.16805881    -0.71500
O1040       O  0.28183895  0.95787452  0.16605380    -0.71500
O1041       O  0.23198409  0.95908344  0.16552173    -0.71500
O1042       O  0.23035000  0.54586094  0.16508068    -0.71500
O1043       O  0.23486252  0.00302774  0.13673111    -0.71400
O1044       O  0.22694139  0.50181978  0.19349030    -0.71600
V1045       V  0.28192153  0.00140884  0.16713516     1.35200
V1046       V  0.23398515  0.00257841  0.16584065     1.35200
C1047       C  0.25580147  0.00030498  0.20536856     0.77800
C1048       C  0.26039311  0.00345779  0.12745187     0.77900
C1049       C  0.25528492  0.56041526  0.16686828     0.77700
C1050       C  0.25654767  0.94352986  0.16575899     0.77700
O1051       O  0.23254760  0.70830633  0.16579428    -0.71400
O1052       O  0.23250699  0.79552146  0.16502448    -0.71600
O1053       O  0.23328601  0.75129086  0.13636484    -0.71500
O1054       O  0.23106021  0.75282717  0.19440731    -0.71500
O1055       O  0.28094156  0.75095987  0.19551638    -0.71500
O1056       O  0.28311106  0.75255767  0.13715461    -0.71500
O1057       O  0.28229189  0.79513336  0.16695862    -0.71400
O1058       O  0.28242927  0.70829364  0.16571395    -0.71600
V1059       V  0.23331016  0.75191935  0.16540829     1.35200
V1060       V  0.28124044  0.75172205  0.16631797     1.35200
C1061       C  0.25759870  0.69337107  0.16574794     0.77800
C1062       C  0.25752699  0.81027304  0.16603305     0.77900
C1063       C  0.25842105  0.75221341  0.12675977     0.77700
C1064       C  0.25551172  0.75226830  0.20490299     0.77700
O1065       O  0.03997308  0.50949905  0.33482992    -0.71400
O1066       O  0.45326079  0.50718077  0.33260096    -0.71600
O1067       O  0.99492022  0.50662471  0.36268812    -0.71500
O1068       O  0.49851346  0.51009308  0.30492415    -0.71500
O1069       O  0.99595572  0.96323091  0.30286991    -0.71500
O1070       O  0.49578242  0.95744266  0.36104122    -0.71500
O1071       O  0.45243028  0.95975495  0.33185974    -0.71400
O1072       O  0.03956563  0.96073119  0.33195964    -0.71600
V1073       V  0.99658232  0.50732373  0.33376678     1.35200
V1074       V  0.49597646  0.96131670  0.33195794     1.35200
C1075       C  0.05425960  0.98566732  0.33331063     0.77800
C1076       C  0.43720482  0.98445076  0.33232719     0.77900
C1077       C  0.99443254  0.98131639  0.37195822     0.77700
C1078       C  0.99711278  0.98911892  0.29418062     0.77700
O1079       O  0.04494077  0.78991770  0.33303662    -0.71400
O1080       O  0.45802206  0.78722558  0.33616303    -0.71600
O1081       O  0.00391457  0.79115986  0.36377762    -0.71500
O1082       O  0.49881388  0.78604669  0.30561489    -0.71500
O1083       O  0.00324203  0.73677458  0.30720502    -0.71500
O1084       O  0.50287176  0.74116486  0.36550559    -0.71500
O1085       O  0.45926295  0.73748907  0.33616283    -0.71400
O1086       O  0.04636806  0.74044370  0.33635256    -0.71600
V1087       V  0.00146150  0.78781814  0.33470747     1.35200
V1088       V  0.50290172  0.73973600  0.33631080     1.35200
C1089       C  0.06055625  0.76549638  0.33417084     0.77800
C1090       C  0.44369303  0.76202347  0.33613790     0.77900
C1091       C  0.00383129  0.76717368  0.37465203     0.77700
C1092       C  0.00074141  0.76078809  0.29649037     0.77700
O1093       O  0.24901459  0.96186724  0.30201309    -0.71400
O1094       O  0.24436601  0.95747865  0.36015297    -0.71600
O1095       O  0.20293646  0.95860956  0.32962518    -0.71500
O1096       O  0.29002195  0.96073990  0.33253273    -0.71500
O1097       O  0.29051576  0.51212475  0.33167448    -0.71500
O1098       O  0.20304067  0.51108751  0.33184903    -0.71500
O1099       O  0.24682476  0.51062474  0.36085481    -0.71400
O1100       O  0.24642652  0.51307759  0.30280948    -0.71600
V1101       V  0.24653553  0.96061053  0.33111956     1.35200
V1102       V  0.24673889  0.51079522  0.33177065     1.35200
C1103       C  0.24838252  0.98755678  0.29307052     0.77800
C1104       C  0.24385488  0.98159143  0.37101846     0.77900
C1105       C  0.18739269  0.98308818  0.33091176     0.77700
C1106       C  0.30430683  0.98596745  0.33268357     0.77700
O1107       O  0.25189509  0.78465683  0.30174235    -0.71400
O1108       O  0.25142285  0.79226694  0.35986601    -0.71600
O1109       O  0.29532977  0.78889698  0.33104189    -0.71500
O1110       O  0.20822066  0.78799164  0.33049285    -0.71500
O1111       O  0.20878656  0.73828759  0.33178214    -0.71500
O1112       O  0.29579821  0.73953533  0.33504758    -0.71500
O1113       O  0.25011678  0.74267487  0.36231113    -0.71400
O1114       O  0.25500846  0.73504226  0.30447187    -0.71600
V1115       V  0.25173522  0.78751832  0.33081506     1.35200
V1116       V  0.25236014  0.73984437  0.33336208     1.35200
C1117       C  0.25400145  0.75859782  0.29327489     0.77800
C1118       C  0.25060798  0.76863516  0.37104676     0.77900
C1119       C  0.31050213  0.76436457  0.33333727     0.77700
C1120       C  0.19355864  0.76299867  0.33089786     0.77700
O1121       O  0.99667672  0.95557736  0.47055711    -0.71400
O1122       O  0.49760210  0.95570774  0.52883870    -0.71600
O1123       O  0.45380765  0.95558227  0.49982540    -0.71500
O1124       O  0.04068165  0.95523039  0.49959494    -0.71500
O1125       O  0.04060754  0.51129924  0.50025920    -0.71500
O1126       O  0.45319376  0.51092389  0.49990199    -0.71500
O1127       O  0.99669892  0.51182687  0.52919657    -0.71400
O1128       O  0.49674976  0.51037347  0.47090395    -0.71600
V1129       V  0.99721383  0.95643293  0.49971582     1.35200
V1130       V  0.99689880  0.51024008  0.50004763     1.35200
C1131       C  0.99685582  0.98059527  0.46076122     0.77800
C1132       C  0.99721445  0.98054331  0.53884002     0.77900
C1133       C  0.43874909  0.98039111  0.49970090     0.77700
C1134       C  0.05576241  0.97994862  0.50005068     0.77700
O1135       O  0.45721918  0.79995123  0.50280017    -0.71400
O1136       O  0.04425318  0.80072979  0.50198542    -0.71600
O1137       O  0.50030011  0.79835515  0.47311653    -0.71500
O1138       O  0.00137591  0.80167555  0.53166797    -0.71500
O1139       O  0.50334788  0.75179148  0.53232657    -0.71500
O1140       O  0.99976114  0.74893303  0.47447319    -0.71500
O1141       O  0.04490761  0.75101107  0.50223064    -0.71400
O1142       O  0.45776364  0.75021864  0.50446564    -0.71600
V1143       V  0.50075214  0.79919641  0.50240550     1.35200
V1144       V  0.00135931  0.75155929  0.50337182     1.35200
C1145       C  0.44260433  0.77503562  0.50387275     0.77800
C1146       C  0.05950837  0.77605589  0.50163720     0.77900
C1147       C  0.00012394  0.77301221  0.46380878     0.77700
C1148       C  0.00302659  0.77706896  0.54189366     0.77700
O1149       O  0.24614540  0.50445402  0.46933833    -0.71400
O1150       O  0.24801339  0.50594023  0.52738393    -0.71600
O1151       O  0.29052606  0.50500188  0.49785368    -0.71500
O1152       O  0.20370567  0.50529185  0.49889375    -0.71500
O1153       O  0.20396070  0.95005573  0.50029394    -0.71500
O1154       O  0.29122926  0.95047473  0.49862600    -0.71500
O1155       O  0.24903137  0.95166685  0.52879855    -0.71400
O1156       O  0.24605842  0.94928618  0.47017847    -0.71600
V1157       V  0.24711646  0.50415140  0.49835101     1.35200
V1158       V  0.24758620  0.95126521  0.49948277     1.35200
C1159       C  0.24513834  0.97402515  0.46003981     0.77800
C1160       C  0.24929190  0.97709393  0.53833970     0.77900
C1161       C  0.30586048  0.97547037  0.49814602     0.77700
C1162       C  0.18890658  0.97489814  0.50014846     0.77700
O1163       O  0.25189063  0.79749223  0.46964022    -0.71400
O1164       O  0.25092888  0.79966205  0.52803659    -0.71600
O1165       O  0.29501500  0.79835657  0.49933230    -0.71500
O1166       O  0.20773014  0.79881415  0.49839754    -0.71500
O1167       O  0.20775350  0.74909123  0.49868737    -0.71500
O1168       O  0.29488105  0.74857561  0.50012623    -0.71500
O1169       O  0.25021188  0.74987688  0.52836683    -0.71400
O1170       O  0.25231168  0.74776318  0.47039143    -0.71600
V1171       V  0.25140447  0.79765637  0.49883098     1.35200
V1172       V  0.25130610  0.74982578  0.49938505     1.35200
C1173       C  0.25237561  0.77218969  0.46003829     0.77800
C1174       C  0.25011899  0.77496290  0.53814876     0.77900
C1175       C  0.30984552  0.77337046  0.49995972     0.77700
C1176       C  0.19276268  0.77395990  0.49849082     0.77700
O1177       O  0.46435600  0.54037860  0.00035445    -0.71400
O1178       O  0.46126335  0.95368808  0.00177490    -0.71600
O1179       O  0.46543134  0.49896935  0.03037314    -0.71500
O1180       O  0.46143655  0.99523774  0.97149726    -0.71500
O1181       O  0.01228535  0.49373738  0.97149154    -0.71500
O1182       O  0.01335592  0.99830985  0.02921330    -0.71500
O1183       O  0.01111842  0.95224369  0.00180415    -0.71400
O1184       O  0.01413418  0.54009456  0.99897619    -0.71600
V1185       V  0.46489995  0.49710296  0.00132632     1.35200
V1186       V  0.01129092  0.99587739  0.00022281     1.35200
C1187       C  0.98922703  0.55517957  0.99949635     0.77800
C1188       C  0.98574188  0.93807676  0.00225825     0.77900
C1189       C  0.99075451  0.50010191  0.03993506     0.77700
C1190       C  0.98692363  0.49382412  0.96189407     0.77700
O1191       O  0.45553184  0.78985741  0.00067560    -0.71400
O1192       O  0.45733374  0.70256425  0.00159459    -0.71600
O1193       O  0.45597897  0.74709505  0.03050045    -0.71500
O1194       O  0.45710556  0.74503968  0.97191505    -0.71500
O1195       O  0.00686589  0.74597299  0.97258301    -0.71500
O1196       O  0.00576621  0.74770178  0.03061608    -0.71500
O1197       O  0.00710460  0.70354615  0.00197527    -0.71400
O1198       O  0.00534378  0.79034934  0.00128594    -0.71600
V1199       V  0.45738349  0.74617913  0.00117584     1.35200
V1200       V  0.00523579  0.74693466  0.00161204     1.35200
C1201       C  0.98023148  0.80506291  0.00105746     0.77800
C1202       C  0.98252771  0.68813376  0.00168263     0.77900
C1203       C  0.98088925  0.74764043  0.04059278     0.77700
C1204       C  0.98227495  0.74465219  0.96225435     0.77700
O1205       O  0.28608853  0.00860180  0.02882481    -0.71400
O1206       O  0.28942359  0.50904071  0.97012659    -0.71600
O1207       O  0.28948605  0.55210776  0.99961904    -0.71500
O1208       O  0.28712605  0.96561724  0.99914181    -0.71500
O1209       O  0.23724650  0.96517155  0.99934801    -0.71500
O1210       O  0.23964553  0.55262846  0.99838592    -0.71500
O1211       O  0.23701865  0.00850954  0.97018430    -0.71400
O1212       O  0.23860819  0.51013024  0.02778305    -0.71600
V1213       V  0.28558426  0.00911143  0.99968970     1.35200
V1214       V  0.23764294  0.00878389  0.99927888     1.35200
C1215       C  0.26096501  0.00904212  0.03857217     0.77800
C1216       C  0.26204439  0.00920953  0.96040731     0.77900
C1217       C  0.26471956  0.56729881  0.99903628     0.77700
C1218       C  0.26240587  0.95045881  0.99903536     0.77700
O1219       O  0.23729251  0.75896380  0.02764022    -0.71400
O1220       O  0.23774985  0.75811076  0.96922228    -0.71600
O1221       O  0.23742878  0.71529911  0.99871214    -0.71500
O1222       O  0.23690705  0.80217810  0.99837074    -0.71500
O1223       O  0.28678857  0.80251847  0.99896951    -0.71500
O1224       O  0.28729407  0.71529913  0.99881098    -0.71500
O1225       O  0.28764932  0.75889847  0.96980810    -0.71400
O1226       O  0.28715368  0.75873450  0.02790987    -0.71600
V1227       V  0.23829860  0.75870007  0.99847712     1.35200
V1228       V  0.28624712  0.75888896  0.99884332     1.35200
C1229       C  0.26223222  0.75848995  0.03777228     0.77800
C1230       C  0.26295803  0.75818889  0.95953840     0.77900
C1231       C  0.26234086  0.70037174  0.99896956     0.77700
C1232       C  0.26164940  0.81728059  0.99879400     0.77700
O1233       O  0.01817673  0.48916045  0.80523649    -0.71400
O1234       O  0.01672506  0.98912995  0.86306545    -0.71600
O1235       O  0.01757715  0.94541322  0.83409958    -0.71500
O1236       O  0.01560262  0.53313922  0.83435878    -0.71500
O1237       O  0.46582053  0.53182640  0.83277783    -0.71500
O1238       O  0.46775161  0.94608263  0.83208268    -0.71500
O1239       O  0.46596462  0.48931732  0.86254769    -0.71400
O1240       O  0.46922607  0.99058425  0.80371457    -0.71600
V1241       V  0.01695999  0.98898142  0.83390516     1.35200
V1242       V  0.46901475  0.98953056  0.83286272     1.35200
C1243       C  0.99455364  0.98936017  0.79426914     0.77800
C1244       C  0.99136084  0.98849859  0.87248944     0.77900
C1245       C  0.99249983  0.93084592  0.83319523     0.77700
C1246       C  0.99024136  0.54746249  0.83348246     0.77700
O1247       O  0.01623034  0.74096694  0.80620380    -0.71400
O1248       O  0.01033851  0.73884294  0.86419085    -0.71600
O1249       O  0.01440605  0.69630972  0.83449913    -0.71500
O1250       O  0.01237138  0.78312982  0.83587620    -0.71500
O1251       O  0.46274511  0.78263157  0.83249643    -0.71500
O1252       O  0.46462284  0.69531777  0.83311395    -0.71500
O1253       O  0.46061472  0.73950299  0.86197818    -0.71400
O1254       O  0.46650640  0.73850002  0.80374274    -0.71600
V1255       V  0.01234101  0.73975868  0.83515265     1.35200
V1256       V  0.46453872  0.73894843  0.83288402     1.35200
C1257       C  0.99238144  0.74030064  0.79504811     0.77800
C1258       C  0.98451327  0.73928239  0.87308060     0.77900
C1259       C  0.98988767  0.68087118  0.83376382     0.77700
C1260       C  0.98740401  0.79784411  0.83414371     0.77700
O1261       O  0.23917785  0.96310579  0.83274661    -0.71400
O1262       O  0.24120028  0.55106964  0.83229355    -0.71600
O1263       O  0.23845097  0.00621805  0.80374970    -0.71500
O1264       O  0.24043721  0.50861930  0.86167966    -0.71500
O1265       O  0.29074765  0.00767259  0.86116367    -0.71500
O1266       O  0.28567831  0.50113962  0.80227604    -0.71500
O1267       O  0.29083571  0.54807125  0.82962202    -0.71400
O1268       O  0.28904320  0.96252632  0.83283243    -0.71600
V1269       V  0.24072602  0.00664879  0.83269153     1.35200
V1270       V  0.28707450  0.50460566  0.83139064     1.35200
C1271       C  0.26395505  0.94786847  0.83262171     0.77800
C1272       C  0.26687133  0.56448955  0.83087144     0.77900
C1273       C  0.26279985  0.00411554  0.79333944     0.77700
C1274       C  0.26606891  0.00787857  0.87140475     0.77700
O1275       O  0.24037393  0.75387117  0.80292053    -0.71400
O1276       O  0.24306357  0.75823514  0.86086617    -0.71600
O1277       O  0.24205523  0.79976370  0.83064075    -0.71500
O1278       O  0.24189942  0.71279469  0.83307827    -0.71500
O1279       O  0.29170500  0.71248679  0.83141844    -0.71500
O1280       O  0.29192369  0.79960518  0.83083020    -0.71500
O1281       O  0.29296454  0.75688120  0.86045019    -0.71400
O1282       O  0.29030751  0.75552221  0.80195311    -0.71600
V1283       V  0.24285429  0.75622346  0.83189153     1.35200
V1284       V  0.29080788  0.75608773  0.83117589     1.35200
C1285       C  0.26480280  0.75408230  0.79254834     0.77800
C1286       C  0.26822391  0.75797273  0.87062964     0.77900
C1287       C  0.26703571  0.81464048  0.83054691     0.77700
C1288       C  0.26672803  0.69769957  0.83217881     0.77700
O1289       O  0.45505456  0.50610588  0.66730835    -0.71400
O1290       O  0.04190769  0.50697908  0.66777090    -0.71600
O1291       O  0.49843260  0.50698344  0.63846794    -0.71500
O1292       O  0.99810309  0.50630113  0.69652141    -0.71500
O1293       O  0.50099724  0.95787460  0.69647100    -0.71500
O1294       O  0.99774790  0.95483318  0.63822092    -0.71500
O1295       O  0.04293800  0.95670252  0.66634306    -0.71400
O1296       O  0.45558284  0.95605020  0.66828995    -0.71600
V1297       V  0.49848691  0.50554763  0.66750677     1.35200
V1298       V  0.99928981  0.95730401  0.66733521     1.35200
C1299       C  0.44049840  0.98087164  0.66726791     0.77800
C1300       C  0.05746762  0.98178553  0.66638367     0.77900
C1301       C  0.99822913  0.97923699  0.62778945     0.77700
C1302       C  0.99940388  0.98343632  0.70579154     0.77700
O1303       O  0.49985137  0.73326287  0.69542909    -0.71400
O1304       O  0.00329026  0.74451830  0.63802567    -0.71600
O1305       O  0.04524845  0.73941834  0.66785384    -0.71500
O1306       O  0.45804390  0.73872274  0.66542045    -0.71500
O1307       O  0.45736311  0.78728484  0.67298629    -0.71500
O1308       O  0.04445170  0.78911956  0.66923947    -0.71500
O1309       O  0.49770050  0.79378812  0.64213189    -0.71400
O1310       O  0.00411995  0.78241651  0.69997130    -0.71600
V1311       V  0.00162610  0.73984349  0.66678940     1.35200
V1312       V  0.00091825  0.78724059  0.67101972     1.35200
C1313       C  0.00202213  0.75578384  0.70748127     0.77800
C1314       C  0.00041326  0.77085888  0.63022534     0.77900
C1315       C  0.05984252  0.76450499  0.66836213     0.77700
C1316       C  0.44281025  0.76282765  0.66920448     0.77700
O1317       O  0.24931742  0.51582045  0.69403770    -0.71400
O1318       O  0.24822841  0.50942141  0.63599669    -0.71600
O1319       O  0.20504168  0.51300104  0.66538949    -0.71500
O1320       O  0.29252520  0.51200852  0.66466893    -0.71500
O1321       O  0.29224323  0.96200220  0.66742650    -0.71500
O1322       O  0.20535535  0.96249755  0.66867916    -0.71500
O1323       O  0.24769740  0.95858921  0.63892061    -0.71400
O1324       O  0.25037750  0.96591361  0.69708180    -0.71600
V1325       V  0.24878030  0.51161429  0.66504804     1.35200
V1326       V  0.24883044  0.96322366  0.66798476     1.35200
C1327       C  0.24984311  0.99199068  0.70562690     0.77800
C1328       C  0.24858280  0.98215419  0.62767121     0.77900
C1329       C  0.19032160  0.98721481  0.66691044     0.77700
C1330       C  0.30731948  0.98670950  0.66686533     0.77700
O1331       O  0.29563579  0.73841575  0.66231586    -0.71400
O1332       O  0.20859421  0.73780797  0.66614835    -0.71600
O1333       O  0.24884747  0.74124857  0.63530412    -0.71500
O1334       O  0.25518760  0.73539031  0.69338696    -0.71500
O1335       O  0.25442154  0.78513313  0.69561246    -0.71500
O1336       O  0.24971836  0.79091633  0.63774350    -0.71500
O1337       O  0.20823844  0.78747856  0.66793830    -0.71400
O1338       O  0.29544969  0.78805625  0.66550927    -0.71600
V1339       V  0.25207664  0.73915399  0.66434608     1.35200
V1340       V  0.25189534  0.78691379  0.66663635     1.35200
C1341       C  0.31038916  0.76328414  0.66364349     0.77800
C1342       C  0.19343611  0.76250770  0.66733144     0.77900
C1343       C  0.24825273  0.76716906  0.62662807     0.77700
C1344       C  0.25621104  0.75940060  0.70435546     0.77700
C1345       C  0.39405571  0.74212955  0.65496518    -0.11900
C1346       C  0.40887776  0.76257904  0.66841451     0.05100
C1347       C  0.39102894  0.78337886  0.68000286    -0.07200
C1348       C  0.35907654  0.78388826  0.67759113    -0.08000
C1349       C  0.34427003  0.76340359  0.66422252    -0.02500
C1350       C  0.36202037  0.74242182  0.65274730     0.04300
N1351       N  0.34806943  0.72265930  0.63787817     0.66800
H1352       H  0.40748121  0.72637943  0.64564367     0.15700
H1353       H  0.34564029  0.79983626  0.68674151     0.15400
N1354       N  0.40477231  0.80288496  0.69511003     0.74500
O1355       O  0.34378541  0.73229301  0.61985351    -0.38900
O1356       O  0.34585637  0.69433561  0.64149913    -0.38900
O1357       O  0.40727472  0.83122523  0.69163630    -0.39600
O1358       O  0.40851940  0.79305213  0.71313963    -0.39600
C1359       C  0.10971478  0.73660565  0.66602153    -0.11900
C1360       C  0.09400903  0.76465763  0.66796615     0.05100
C1361       C  0.11139821  0.79194407  0.66958875    -0.07200
C1362       C  0.14356097  0.79054327  0.66961534    -0.08000
C1363       C  0.15926444  0.76247089  0.66773911    -0.02500
C1364       C  0.14185096  0.73523040  0.66577923     0.04300
N1365       N  0.15623112  0.70594901  0.66321966     0.66800
H1366       H  0.09696142  0.71528690  0.66455630     0.15700
H1367       H  0.15633091  0.81187160  0.67092733     0.15400
N1368       N  0.09694687  0.82135601  0.67098082     0.74500
O1369       O  0.16075154  0.68917821  0.67868717    -0.38900
O1370       O  0.15829486  0.69443000  0.64548884    -0.38900
O1371       O  0.09568719  0.83490863  0.68809423    -0.39600
O1372       O  0.09128034  0.83615156  0.65478662    -0.39600
C1373       C  0.35626671  0.95712106  0.66750171    -0.11900
C1374       C  0.34140038  0.98582171  0.66726383     0.05100
C1375       C  0.35938734  0.51197245  0.66154201    -0.07200
C1376       C  0.39140967  0.50976430  0.66235800    -0.08000
C1377       C  0.40642476  0.98160505  0.66761750    -0.02500
C1378       C  0.38833847  0.95475465  0.66779748     0.04300
N1379       N  0.40196061  0.92489012  0.66833357     0.66800
H1380       H  0.34292759  0.93609417  0.66749022     0.15700
H1381       H  0.40477974  0.53028576  0.65940597     0.15400
N1382       N  0.34585153  0.54082304  0.65631039     0.74500
O1383       O  0.40575864  0.91171208  0.68536818    -0.38900
O1384       O  0.40400530  0.90944801  0.65198442    -0.38900
O1385       O  0.34400978  0.56165314  0.66974234    -0.39600
O1386       O  0.34203443  0.54756262  0.63765942    -0.39600
C1387       C  0.10599579  0.51091027  0.67225188    -0.11900
C1388       C  0.09146827  0.98270023  0.66625326     0.05100
C1389       C  0.10955272  0.95703766  0.66072722    -0.07200
C1390       C  0.14160072  0.95917240  0.66113437    -0.08000
C1391       C  0.15635618  0.98658867  0.66668859    -0.02500
C1392       C  0.13805937  0.51333360  0.67215759     0.04300
N1393       N  0.15163641  0.54183498  0.67811431     0.66800
H1394       H  0.09253019  0.53098836  0.67650234     0.15700
H1395       H  0.15507197  0.93917180  0.65672559     0.15400
N1396       N  0.09589618  0.92896174  0.65399778     0.74500
O1397       O  0.15704854  0.56170990  0.66458231    -0.38900
O1398       O  0.15033155  0.55006499  0.69665931    -0.38900
O1399       O  0.09279309  0.92390785  0.63502986    -0.39600
O1400       O  0.09308834  0.40805329  0.66944055    -0.39600
C1401       C  0.28093929  0.77536561  0.75923737    -0.11900
C1402       C  0.26343405  0.75390580  0.76997694     0.05100
C1403       C  0.24384362  0.73390462  0.75899930    -0.07200
C1404       C  0.24242980  0.73546695  0.73756005    -0.08000
C1405       C  0.25929495  0.75754971  0.72685614    -0.02500
C1406       C  0.27857351  0.77779653  0.73790684     0.04300
N1407       N  0.29623320  0.80069096  0.72771153     0.66800
H1408       H  0.29585130  0.79111164  0.76755207     0.15700
H1409       H  0.22743626  0.71979136  0.72925462     0.15400
N1410       N  0.22577392  0.71148442  0.76933743     0.74500
O1411       O  0.28549118  0.82751472  0.72615669    -0.38900
O1412       O  0.32463979  0.79629377  0.72506579    -0.38900
O1413       O  0.19748005  0.71646404  0.77212047    -0.39600
O1414       O  0.23613235  0.68456625  0.77121708    -0.39600
C1415       C  0.29243204  0.89832713  0.83208552    -0.11900
C1416       C  0.26404865  0.91379528  0.83195068     0.05100
C1417       C  0.23675751  0.89628294  0.83067318    -0.07200
C1418       C  0.23842689  0.86422400  0.83004571    -0.08000
C1419       C  0.26681767  0.84874594  0.83044573    -0.02500
C1420       C  0.29412330  0.86631318  0.83120691     0.04300
N1421       N  0.32385167  0.85224320  0.83098264     0.66800
H1422       H  0.31380976  0.91117881  0.83276639     0.15700
H1423       H  0.21707076  0.85135093  0.82925399     0.15400
N1424       N  0.20711903  0.91048565  0.82977065     0.74500
O1425       O  0.33759495  0.84881456  0.81410765    -0.38900
O1426       O  0.33890219  0.85004117  0.84750571    -0.38900
O1427       O  0.19408273  0.91391888  0.81259634    -0.39600
O1428       O  0.19150818  0.91315744  0.84596165    -0.39600
C1429       C  0.24038231  0.61471612  0.82812850    -0.11900
C1430       C  0.26805933  0.59854479  0.83082608     0.05100
C1431       C  0.29548037  0.61537388  0.83392686    -0.07200
C1432       C  0.29450668  0.64754449  0.83431284    -0.08000
C1433       C  0.26667177  0.66363109  0.83177094    -0.02500
C1434       C  0.23937704  0.64671012  0.82856933     0.04300
N1435       N  0.21037743  0.66148947  0.82538073     0.66800
H1436       H  0.21897118  0.60240573  0.82556214     0.15700
H1437       H  0.31583096  0.66002265  0.83686304     0.15400
N1438       N  0.32432694  0.60036295  0.83728395     0.74500
O1439       O  0.20086785  0.66585371  0.80731565    -0.38900
O1440       O  0.19171755  0.66367424  0.84009515    -0.38900
O1441       O  0.34331369  0.59837679  0.82274113    -0.39600
O1442       O  0.33344877  0.59574045  0.85541710    -0.39600
C1443       C  0.24166442  0.52197688  0.75972998    -0.11900
C1444       C  0.26075829  0.00160661  0.77077507     0.05100
C1445       C  0.28176716  0.98392860  0.75920124    -0.07200
C1446       C  0.27742041  0.98061194  0.73800478    -0.08000
C1447       C  0.25261800  0.99487501  0.72804028    -0.02500
C1448       C  0.23851933  0.51980913  0.73841699     0.04300
N1449       N  0.22011479  0.54214545  0.72809797     0.66800
H1450       H  0.23141988  0.54137076  0.76774426     0.15700
H1451       H  0.29369947  0.96694725  0.72921974     0.15400
N1452       N  0.30667199  0.96799720  0.76882116     0.74500
O1453       O  0.19124533  0.53948920  0.72856643    -0.38900
O1454       O  0.23171585  0.56773733  0.72358214    -0.38900
O1455       O  0.30334812  0.94025211  0.77379707    -0.39600
O1456       O  0.33332584  0.97935180  0.76835207    -0.39600
C1457       C  0.47489700  0.73616815  0.73782360    -0.11900
C1458       C  0.00057481  0.75107011  0.72973685     0.05100
C1459       C  0.02392443  0.76146438  0.74300216    -0.07200
C1460       C  0.02109033  0.75703431  0.76416396    -0.08000
C1461       C  0.99497382  0.74277758  0.77246694    -0.02500
C1462       C  0.47169557  0.73220627  0.75899493     0.04300
N1463       N  0.44483336  0.71719232  0.76648095     0.66800
H1464       H  0.45681083  0.72802883  0.72761374     0.15700
H1465       H  0.03930260  0.76531824  0.77420110     0.15400
N1466       N  0.05102161  0.77564282  0.73515613     0.74500
O1467       O  0.42029771  0.73237754  0.76867259    -0.38900
O1468       O  0.44376639  0.68826504  0.76645200    -0.38900
O1469       O  0.05392847  0.80438861  0.73632544    -0.39600
O1470       O  0.07412786  0.75928298  0.73085572    -0.39600
C1471       C  0.46406465  0.88181180  0.82836765    -0.11900
C1472       C  0.99168161  0.89683211  0.83346003     0.05100
C1473       C  0.01754610  0.87890755  0.83893679    -0.07200
C1474       C  0.01535104  0.84693417  0.83911459    -0.08000
C1475       C  0.98777883  0.83190542  0.83403845    -0.02500
C1476       C  0.46184211  0.84978348  0.82863251     0.04300
N1477       N  0.43317515  0.83601846  0.82313275     0.66800
H1478       H  0.44383396  0.89506385  0.82405811     0.15700
H1479       H  0.03561749  0.83376232  0.84345845     0.15400
N1480       N  0.04601384  0.89263847  0.84494241     0.74500
O1481       O  0.41264485  0.83301185  0.83660460    -0.38900
O1482       O  0.42597053  0.83355954  0.80442943    -0.38900
O1483       O  0.05202131  0.89595191  0.86377013    -0.39600
O1484       O  0.06742903  0.89483128  0.83202149    -0.39600
C1485       C  0.01743913  0.59762951  0.83459762    -0.11900
C1486       C  0.98952782  0.58158509  0.83329365     0.05100
C1487       C  0.46183652  0.59858552  0.83199102    -0.07200
C1488       C  0.46264502  0.63068682  0.83226943    -0.08000
C1489       C  0.99052984  0.64675351  0.83365175    -0.02500
C1490       C  0.01825715  0.62971416  0.83476117     0.04300
N1491       N  0.04754159  0.64441467  0.83609311     0.66800
H1492       H  0.03910009  0.58518770  0.83557263     0.15700
H1493       H  0.44099931  0.64315331  0.83128730     0.15400
N1494       N  0.43260791  0.58387316  0.83024376     0.74500
O1495       O  0.05946710  0.64916804  0.85349124    -0.38900
O1496       O  0.06408117  0.64620475  0.82027680    -0.38900
O1497       O  0.41520427  0.58279908  0.84567304    -0.39600
O1498       O  0.42159694  0.57850157  0.81265935    -0.39600
C1499       C  0.02321283  0.48361358  0.76191625    -0.11900
C1500       C  0.99553366  0.98825917  0.77153492     0.05100
C1501       C  0.47248634  0.00207122  0.75925720    -0.07200
C1502       C  0.47459894  0.00078457  0.73784594    -0.08000
C1503       C  0.99866474  0.98496623  0.72831309    -0.02500
C1504       C  0.02494605  0.48145480  0.74047135     0.04300
N1505       N  0.05431727  0.47946711  0.73075198     0.66800
H1506       H  0.04439382  0.48363779  0.77072509     0.15700
H1507       H  0.45692081  0.01171150  0.72860178     0.15400
N1508       N  0.44691615  0.01774422  0.76822928     0.74500
O1509       O  0.06726743  0.50356316  0.72453607    -0.38900
O1510       O  0.06462985  0.45363255  0.72526584    -0.38900
O1511       O  0.44662523  0.04668618  0.76868439    -0.39600
O1512       O  0.42225934  0.00328365  0.77130558    -0.39600
C1513       C  0.29060171  0.76848695  0.92686809    -0.11900
C1514       C  0.26405772  0.75775498  0.93678875     0.05100
C1515       C  0.23940468  0.74676372  0.92471995    -0.07200
C1516       C  0.24146129  0.74727027  0.90332445    -0.08000
C1517       C  0.26786667  0.75815310  0.89337957    -0.02500
C1518       C  0.29273279  0.76879869  0.90541337     0.04300
N1519       N  0.31977749  0.78108803  0.89619631     0.66800
H1520       H  0.30982475  0.77721176  0.93584015     0.15700
H1521       H  0.22225753  0.73841368  0.89439324     0.15400
N1522       N  0.21270094  0.73363425  0.93385381     0.74500
O1523       O  0.32149611  0.80959324  0.89309249    -0.38900
O1524       O  0.34394156  0.76501064  0.89558359    -0.38900
O1525       O  0.18778882  0.74856294  0.93386108    -0.39600
O1526       O  0.21225802  0.70522421  0.93750795    -0.39600
C1527       C  0.28839507  0.86712716  0.99393629    -0.11900
C1528       C  0.26136212  0.85133727  0.99893388     0.05100
C1529       C  0.23471585  0.86850870  0.00386758    -0.07200
C1530       C  0.23565221  0.90059365  0.00370220    -0.08000
C1531       C  0.26269533  0.91639511  0.99874081    -0.02500
C1532       C  0.28930368  0.89922291  0.99370624     0.04300
N1533       N  0.31721751  0.91384782  0.98770270     0.66800
H1534       H  0.30907700  0.85446621  0.98987822     0.15700
H1535       H  0.21495476  0.91323354  0.00775212     0.15400
N1536       N  0.20669346  0.85388387  0.00964722     0.74500
O1537       O  0.33841190  0.91757125  0.00074819    -0.38900
O1538       O  0.32313576  0.91680168  0.96887630    -0.38900
O1539       O  0.20046202  0.85084193  0.02842068    -0.39600
O1540       O  0.18573094  0.85017593  0.99643324    -0.39600
C1541       C  0.29072277  0.65075384  0.99835368    -0.11900
C1542       C  0.26246969  0.66634079  0.99939337     0.05100
C1543       C  0.23509740  0.64896686  0.00071396    -0.07200
C1544       C  0.23652620  0.61693310  0.00045902    -0.08000
C1545       C  0.26475633  0.60133742  0.99920017    -0.02500
C1546       C  0.29216591  0.61870320  0.99832022     0.04300
N1547       N  0.32171705  0.60435730  0.99726769     0.66800
H1548       H  0.31211134  0.66351927  0.99745568     0.15700
H1549       H  0.21513934  0.60417937  0.00146405     0.15400
N1550       N  0.20563142  0.66328327  0.00269150     0.74500
O1551       O  0.33382129  0.59955376  0.97998520    -0.38900
O1552       O  0.33813782  0.60273992  0.01323659    -0.38900
O1553       O  0.18786636  0.66444640  0.98735679    -0.39600
O1554       O  0.19503149  0.66859235  0.02035141    -0.39600
C1555       C  0.29113623  0.00995406  0.92757834    -0.11900
C1556       C  0.26260206  0.00935675  0.93763910     0.05100
C1557       C  0.23713981  0.50793477  0.92560611    -0.07200
C1558       C  0.23842426  0.50811182  0.90423877    -0.08000
C1559       C  0.26588994  0.00887456  0.89418206    -0.02500
C1560       C  0.29304905  0.00986393  0.90614666     0.04300
N1561       N  0.32277654  0.01100087  0.89692356     0.66800
H1562       H  0.31239006  0.01056689  0.93640459     0.15700
H1563       H  0.21688334  0.50686509  0.89576371     0.15400
N1564       N  0.20759024  0.50647865  0.93508952     0.74500
O1565       O  0.33519412  0.03670501  0.89385537    -0.38900
O1566       O  0.33905221  0.98700229  0.89625422    -0.38900
O1567       O  0.19164099  0.53059958  0.93670333    -0.39600
O1568       O  0.19182720  0.98362551  0.93721405    -0.39600
C1569       C  0.45555511  0.74537066  0.92826678    -0.11900
C1570       C  0.98302459  0.74253543  0.93946159     0.05100
C1571       C  0.01069286  0.73746067  0.92855497    -0.07200
C1572       C  0.01035360  0.73626412  0.90711885    -0.08000
C1573       C  0.98294061  0.73971314  0.89588744    -0.02500
C1574       C  0.45521436  0.74394359  0.90676710     0.04300
N1575       N  0.42645048  0.74728921  0.89634371     0.66800
H1576       H  0.43395585  0.74900645  0.93623936     0.15700
H1577       H  0.03200225  0.73251934  0.89922084     0.15400
N1578       N  0.03939180  0.73289350  0.93888986     0.74500
O1579       O  0.40928087  0.72421976  0.89408196    -0.38900
O1580       O  0.41558159  0.77379394  0.89340929    -0.38900
O1581       O  0.04923090  0.70593844  0.94161389    -0.39600
O1582       O  0.05762232  0.75517338  0.94097548    -0.39600
C1583       C  0.45665960  0.88929245  0.99755863    -0.11900
C1584       C  0.98431905  0.90406249  0.00283090     0.05100
C1585       C  0.01001346  0.88587128  0.00818111    -0.07200
C1586       C  0.00794184  0.85390014  0.00739122    -0.08000
C1587       C  0.98052262  0.83911966  0.00167047    -0.02500
C1588       C  0.45448348  0.85722657  0.99699740     0.04300
N1589       N  0.42583464  0.84366174  0.99120183     0.66800
H1590       H  0.43645627  0.90278281  0.99348548     0.15700
H1591       H  0.02813501  0.84049556  0.01159758     0.15400
N1592       N  0.03808624  0.89934215  0.01518500     0.74500
O1593       O  0.41968805  0.83985656  0.97243209    -0.38900
O1594       O  0.40449554  0.84193298  0.00421599    -0.38900
O1595       O  0.04296345  0.90188538  0.03421151    -0.39600
O1596       O  0.56024935  0.90219573  0.00286064    -0.39600
C1597       C  0.01259290  0.63938710  0.00229070    -0.11900
C1598       C  0.98378520  0.65409575  0.00115880     0.05100
C1599       C  0.45719350  0.63585339  0.99908315    -0.07200
C1600       C  0.45981153  0.60393716  0.99823918    -0.08000
C1601       C  0.98848218  0.58921962  0.99949873    -0.02500
C1602       C  0.01519803  0.60738096  0.00149431     0.04300
N1603       N  0.04510826  0.59388065  0.00303881     0.66800
H1604       H  0.03349400  0.65280979  0.00386716     0.15700
H1605       H  0.43886078  0.59059202  0.99665960     0.15400
N1606       N  0.42719191  0.64919206  0.99773421     0.74500
O1607       O  0.06143935  0.59131963  0.98715906    -0.38900
O1608       O  0.05744572  0.59076945  0.02046615    -0.38900
O1609       O  0.41436418  0.65169810  0.98042006    -0.39600
O1610       O  0.41124126  0.65197784  0.01377017    -0.39600
C1611       C  0.01387576  0.98283276  0.92888167    -0.11900
C1612       C  0.98646094  0.49171515  0.93919152     0.05100
C1613       C  0.46167985  0.50272227  0.92715729    -0.07200
C1614       C  0.46337011  0.50140167  0.90569394    -0.08000
C1615       C  0.99005411  0.98829602  0.89524687    -0.02500
C1616       C  0.01596754  0.98123529  0.90751392     0.04300
N1617       N  0.54438610  0.97147393  0.89863967     0.66800
H1618       H  0.03423072  0.97742796  0.93790048     0.15700
H1619       H  0.44443837  0.51062496  0.89671867     0.15400
N1620       N  0.93505648  0.51612563  0.93635950     0.74500
O1621       O  0.06583533  0.99066699  0.89653277    -0.38900
O1622       O  0.55047890  0.94318208  0.89772250    -0.38900
O1623       O  0.93293324  0.54495853  0.93750163    -0.39600
O1624       O  0.41137880  0.50017055  0.93897958    -0.39600
C1625       C  0.23611179  0.74859655  0.57029546    -0.11900
C1626       C  0.24848507  0.77464511  0.56081525     0.05100
C1627       C  0.25904354  0.79910788  0.57322281    -0.07200
C1628       C  0.25810732  0.79646140  0.59462618    -0.08000
C1629       C  0.24667738  0.76988943  0.60404164    -0.02500
C1630       C  0.23484448  0.74612944  0.59161590     0.04300
N1631       N  0.22035794  0.71987314  0.60034677     0.66800
H1632       H  0.22693055  0.72991949  0.56104674     0.15700
H1633       H  0.26723107  0.81509320  0.60394544     0.15400
N1634       N  0.27203196  0.82612788  0.56446597     0.74500
O1635       O  0.19199785  0.72088505  0.60436843    -0.38900
O1636       O  0.23401233  0.69429359  0.59999799    -0.38900
O1637       O  0.25639086  0.85055950  0.56408406    -0.39600
O1638       O  0.30069301  0.82739533  0.56160085    -0.39600
C1639       C  0.24727639  0.95133826  0.57255222    -0.11900
C1640       C  0.24993341  0.97852919  0.56118999     0.05100
C1641       C  0.24631687  0.51009115  0.57170408    -0.07200
C1642       C  0.24599032  0.50967516  0.59314181    -0.08000
C1643       C  0.24897578  0.97992527  0.60484291    -0.02500
C1644       C  0.24673190  0.95173512  0.59408142     0.04300
N1645       N  0.24347092  0.92327166  0.60463431     0.66800
H1646       H  0.24523884  0.92941824  0.56468072     0.15700
H1647       H  0.24412744  0.53143952  0.60121201     0.15400
N1648       N  0.24423352  0.53912388  0.56166203     0.74500
O1649       O  0.21694531  0.91228648  0.60720970    -0.38900
O1650       O  0.26670385  0.90622211  0.60705553    -0.38900
O1651       O  0.21829135  0.55184435  0.55962883    -0.39600
O1652       O  0.26830597  0.55474834  0.55911838    -0.39600
C1653       C  0.35892873  0.79944196  0.50853283    -0.11900
C1654       C  0.34380644  0.77336404  0.50090561     0.05100
C1655       C  0.36146231  0.74778854  0.49462722    -0.07200
C1656       C  0.39350575  0.74861816  0.49624899    -0.08000
C1657       C  0.40863982  0.77473859  0.50374200    -0.02500
C1658       C  0.39100969  0.80036589  0.51000919     0.04300
N1659       N  0.40516481  0.82717104  0.51843933     0.66800
H1660       H  0.34575876  0.81920206  0.51365781     0.15700
H1661       H  0.40667583  0.72896132  0.49095116     0.15400
N1662       N  0.34746490  0.72158547  0.48531645     0.74500
O1663       O  0.40930622  0.82908325  0.53757203    -0.38900
O1664       O  0.40743701  0.85096786  0.50758294    -0.38900
O1665       O  0.34549843  0.72019544  0.46602335    -0.39600
O1666       O  0.34375234  0.69753528  0.49572426    -0.39600
C1667       C  0.14283937  0.80232519  0.49816266    -0.11900
C1668       C  0.15861571  0.77413021  0.49867547     0.05100
C1669       C  0.14132456  0.74674615  0.49983242    -0.07200
C1670       C  0.10928067  0.74808666  0.50077773    -0.08000
C1671       C  0.09353459  0.77620329  0.50047164    -0.02500
C1672       C  0.11069502  0.80362241  0.49895857     0.04300
N1673       N  0.09595782  0.83296445  0.49815449     0.66800
H1674       H  0.15553205  0.82373305  0.49716966     0.15700
H1675       H  0.09662982  0.72665614  0.50179974     0.15400
N1676       N  0.15577353  0.71727152  0.50019333     0.74500
O1677       O  0.09108847  0.84781725  0.51447850    -0.38900
O1678       O  0.08686041  0.84359931  0.48119272    -0.38900
O1679       O  0.15895573  0.70345231  0.51705087    -0.39600
O1680       O  0.15936976  0.70267957  0.48361840    -0.39600
C1681       C  0.52016738  0.75398195  0.59664123    -0.11900
C1682       C  0.00147102  0.77425347  0.60771784     0.05100
C1683       C  0.98419175  0.79656444  0.59704031    -0.07200
C1684       C  0.98600999  0.79817813  0.57557247    -0.08000
C1685       C  0.00412653  0.77720961  0.56451261    -0.02500
C1686       C  0.52152242  0.75509725  0.57528886     0.04300
N1687       N  0.54109390  0.73384840  0.56480831     0.66800
H1688       H  0.53387811  0.73692251  0.60463284     0.15700
H1689       H  0.97201332  0.81487667  0.56745864     0.15400
N1690       N  0.96274145  0.81581751  0.60753881     0.74500
O1691       O  0.53158375  0.70704109  0.56117178    -0.38900
O1692       O  0.56943243  0.73956722  0.56330003    -0.38900
O1693       O  0.96963667  0.84333689  0.61132380    -0.39600
O1694       O  0.93521545  0.80718550  0.60943547    -0.39600
C1695       C  0.35429456  0.50925136  0.50128857    -0.11900
C1696       C  0.33985960  0.97619098  0.49818442     0.05100
C1697       C  0.35789895  0.95040892  0.49282078    -0.07200
C1698       C  0.38996478  0.95242015  0.49343630    -0.08000
C1699       C  0.40476058  0.97969138  0.49933907    -0.02500
C1700       C  0.38629613  0.51150712  0.50210013     0.04300
N1701       N  0.40044734  0.03323630  0.51188478     0.66800
H1702       H  0.34080717  0.53001211  0.50354367     0.15700
H1703       H  0.40339822  0.93237816  0.48905043     0.15400
N1704       N  0.34448819  0.42485989  0.49207096     0.74500
O1705       O  0.40316147  0.55964764  0.49181816    -0.38900
O1706       O  0.40276555  0.03815395  0.53091511    -0.38900
O1707       O  0.34284193  0.41430933  0.47405012    -0.39600
O1708       O  0.34070784  0.90079351  0.49891219    -0.39600
C1709       C  0.10488049  0.95099002  0.49679950    -0.11900
C1710       C  0.08983680  0.97910019  0.50034884     0.05100
C1711       C  0.10768603  0.51242847  0.49962687    -0.07200
C1712       C  0.13973311  0.51007857  0.49942243    -0.08000
C1713       C  0.15485825  0.97534489  0.50047373    -0.02500
C1714       C  0.13697775  0.94883633  0.49685688     0.04300
N1715       N  0.15086275  0.91968432  0.49278475     0.66800
H1716       H  0.09164681  0.93033061  0.49378138     0.15700
H1717       H  0.15305246  0.53111167  0.49861860     0.15400
N1718       N  0.09404711  0.54226775  0.49883582     0.74500
O1719       O  0.15440703  0.90079922  0.50723979    -0.38900
O1720       O  0.15356944  0.91058113  0.47448106    -0.38900
O1721       O  0.09219363  0.55808946  0.51503474    -0.39600
O1722       O  0.08994945  0.55501527  0.48168587    -0.39600
C1723       C  0.50133799  0.95283309  0.57199749    -0.11900
C1724       C  0.99718836  0.98059770  0.56158060     0.05100
C1725       C  0.99829998  0.51369569  0.57404956    -0.07200
C1726       C  0.99861973  0.51161231  0.59547516    -0.08000
C1727       C  0.99765130  0.97879117  0.60503131    -0.02500
C1728       C  0.50146891  0.95162500  0.59343833     0.04300
N1729       N  0.50517473  0.92251120  0.60310509     0.66800
H1730       H  0.50444788  0.93160300  0.56345972     0.15700
H1731       H  0.00019443  0.53268150  0.60436094     0.15400
N1732       N  0.99996848  0.54338582  0.56489700     0.74500
O1733       O  0.48169949  0.90659658  0.60688557    -0.38900
O1734       O  0.53150416  0.91032572  0.60407586    -0.38900
O1735       O  0.97600398  0.55969834  0.56367315    -0.39600
O1736       O  0.02590482  0.55550958  0.56198147    -0.39600
C1737       C  0.25822112  0.74397361  0.40487365    -0.11900
C1738       C  0.25102281  0.77060647  0.39378297     0.05100
C1739       C  0.24485195  0.79800147  0.40472185    -0.07200
C1740       C  0.24562420  0.79802312  0.42622710    -0.08000
C1741       C  0.25256535  0.77123607  0.43728022    -0.02500
C1742       C  0.25917999  0.74400913  0.42628131     0.04300
N1743       N  0.26780482  0.71628597  0.43646537     0.66800
H1744       H  0.26356080  0.72274813  0.39687434     0.15700
H1745       H  0.24042915  0.81921432  0.43431101     0.15400
N1746       N  0.23712181  0.82584560  0.39438424     0.74500
O1747       O  0.24756729  0.69635690  0.44010342    -0.38900
O1748       O  0.29582978  0.70876463  0.43723638    -0.38900
O1749       O  0.20932212  0.83414140  0.39337765    -0.39600
O1750       O  0.25798502  0.84512795  0.39075179    -0.39600
C1751       C  0.24350598  0.50872977  0.42671568    -0.11900
C1752       C  0.24351155  0.97472020  0.43722946     0.07500
C1753       C  0.24488605  0.94812859  0.42478624    -0.07200
C1754       C  0.24466080  0.95090123  0.40334353    -0.08000
C1755       C  0.24264860  0.97974033  0.39378197    -0.02500
C1756       C  0.24339168  0.51110419  0.40533662     0.04300
N1757       N  0.24123974  0.54098292  0.39645687     0.66800
H1758       H  0.24244195  0.52976085  0.43566861     0.15700
H1759       H  0.24628870  0.93016306  0.39412555     0.15400
N1760       N  0.24654119  0.91815554  0.43352411     0.74500
O1761       O  0.21507486  0.55286231  0.39357004    -0.38900
O1762       O  0.26483940  0.55773694  0.39580519    -0.38900
O1763       O  0.22225046  0.90261302  0.43528208    -0.39600
O1764       O  0.27229945  0.90492111  0.43503767    -0.39600
C1765       C  0.99791104  0.74233188  0.40889098    -0.11900
C1766       C  0.00417884  0.76888219  0.39749550     0.05100
C1767       C  0.50984953  0.79625711  0.40822000    -0.07200
C1768       C  0.50784483  0.79722577  0.42966556    -0.08000
C1769       C  0.00104767  0.77112020  0.44102611    -0.02500
C1770       C  0.99651235  0.74312196  0.43035643     0.04300
N1771       N  0.99044750  0.71518070  0.44101125     0.66800
H1772       H  0.99372134  0.72070922  0.40110879     0.15700
H1773       H  0.51221576  0.81879791  0.43747284     0.15400
N1774       N  0.51854679  0.82351236  0.39767913     0.74500
O1775       O  0.96355584  0.70921652  0.44700008    -0.38900
O1776       O  0.01220920  0.69692950  0.44507353    -0.38900
O1777       O  0.49855083  0.84379939  0.39402342    -0.39600
O1778       O  0.54668900  0.82983333  0.39569218    -0.39600
C1779       C  0.39410767  0.78986274  0.33290844    -0.11900
C1780       C  0.40961440  0.76185395  0.33567744     0.05100
C1781       C  0.39213864  0.73471234  0.33749417    -0.07200
C1782       C  0.36003138  0.73624410  0.33681666    -0.08000
C1783       C  0.34455611  0.76428115  0.33404440    -0.02500
C1784       C  0.36206006  0.79133337  0.33192466     0.04300
N1785       N  0.34788699  0.82046858  0.32838537     0.66800
H1786       H  0.40695782  0.81105149  0.33119253     0.15700
H1787       H  0.34713924  0.71504357  0.33834831     0.15400
N1788       N  0.40640371  0.70536112  0.33989606     0.74500
O1789       O  0.34372698  0.83859224  0.34326020    -0.38900
O1790       O  0.34577870  0.83047840  0.31028969    -0.38900
O1791       O  0.40786198  0.69346012  0.35749364    -0.39600
O1792       O  0.41070858  0.68871781  0.32428352    -0.39600
C1793       C  0.10996342  0.73743994  0.33107989    -0.11900
C1794       C  0.09451029  0.76565772  0.33274312     0.05100
C1795       C  0.11191454  0.79298692  0.33289177    -0.07200
C1796       C  0.14399042  0.79144042  0.33199102    -0.08000
C1797       C  0.15948400  0.76314976  0.33078974    -0.02500
C1798       C  0.14198671  0.73589765  0.33002963     0.04300
N1799       N  0.15614310  0.70641325  0.32809568     0.66800
H1800       H  0.09709474  0.71609486  0.33055079     0.15700
H1801       H  0.15686296  0.81278335  0.33246521     0.15400
N1802       N  0.09761593  0.82249339  0.33421431     0.74500
O1803       O  0.16034643  0.69034335  0.34393135    -0.38900
O1804       O  0.15754280  0.69384496  0.31065437    -0.38900
O1805       O  0.09660700  0.83616559  0.35129426    -0.39600
O1806       O  0.09240767  0.83738614  0.31799358    -0.39600
C1807       C  0.49402237  0.50938835  0.40514696    -0.11900
C1808       C  0.99444291  0.98016160  0.39464974     0.05100
C1809       C  0.98429603  0.95444966  0.40588240    -0.07200
C1810       C  0.98564712  0.95492313  0.42737184    -0.08000
C1811       C  0.99611201  0.98092231  0.43805661    -0.02500
C1812       C  0.49408419  0.51133910  0.42649589     0.04300
N1813       N  0.49193559  0.54102832  0.43573309     0.66800
H1814       H  0.49279354  0.53061905  0.39651280     0.15700
H1815       H  0.97775748  0.93496293  0.43576200     0.15400
N1816       N  0.97059620  0.92861696  0.39592936     0.74500
O1817       O  0.51586254  0.55711831  0.43766167    -0.38900
O1818       O  0.46587461  0.55348807  0.43773501    -0.38900
O1819       O  0.98759930  0.90754818  0.38899771    -0.39600
O1820       O  0.94238910  0.92334575  0.39867544    -0.39600
C1821       C  0.38966776  0.51041951  0.32774624    -0.11900
C1822       C  0.40320599  0.98423254  0.33216431     0.05100
C1823       C  0.38612343  0.95914588  0.33966970    -0.07200
C1824       C  0.35404571  0.96050415  0.33980404    -0.08000
C1825       C  0.33824412  0.98628018  0.33243941    -0.02500
C1826       C  0.35762057  0.51270595  0.32760366     0.04300
N1827       N  0.34391266  0.54175017  0.32309256     0.66800
H1828       H  0.40292364  0.53096810  0.32462736     0.15700
H1829       H  0.34137833  0.94114030  0.34592881     0.15400
N1830       N  0.40077485  0.93264481  0.34810456     0.74500
O1831       O  0.34030250  0.56104931  0.33735994    -0.38900
O1832       O  0.34232794  0.55057181  0.30469905    -0.38900
O1833       O  0.39919788  0.92817347  0.36717528    -0.39600
O1834       O  0.40709086  0.91035311  0.33644382    -0.39600
C1835       C  0.13820045  0.51243958  0.32771721    -0.11900
C1836       C  0.15333235  0.98286276  0.33087745     0.05100
C1837       C  0.13611467  0.95616521  0.33501333    -0.07200
C1838       C  0.10401587  0.95780498  0.33583335    -0.08000
C1839       C  0.08831317  0.98560061  0.33263004    -0.02500
C1840       C  0.10607545  0.51317158  0.32845709     0.04300
N1841       N  0.09076713  0.54157327  0.32431256     0.66800
H1842       H  0.15041070  0.53348270  0.32416014     0.15700
H1843       H  0.09129052  0.93701288  0.33923704     0.15400
N1844       N  0.15071848  0.92737620  0.33900794     0.74500
O1845       O  0.08489106  0.55957229  0.33899005    -0.38900
O1846       O  0.09052567  0.55185015  0.30624751    -0.38900
O1847       O  0.15481214  0.91897719  0.35732524    -0.39600
O1848       O  0.15304223  0.90789318  0.32473018    -0.39600
C1849       C  0.28747492  0.75420918  0.09389037    -0.11900
C1850       C  0.25901016  0.75333248  0.10397284     0.05100
C1851       C  0.23177701  0.75421867  0.09200069    -0.07200
C1852       C  0.23357186  0.75627626  0.07064890    -0.08000
C1853       C  0.26198946  0.75717405  0.06055132    -0.02500
C1854       C  0.28926835  0.75599125  0.07248613     0.04300
N1855       N  0.31902866  0.75634264  0.06325191     0.66800
H1856       H  0.30878170  0.75349327  0.10269047     0.15700
H1857       H  0.21223406  0.75690167  0.06188314     0.15400
N1858       N  0.20199012  0.75284721  0.10113301     0.74500
O1859       O  0.33345020  0.78134492  0.06199259    -0.38900
O1860       O  0.33334192  0.73139611  0.06070823    -0.38900
O1861       O  0.18626946  0.77709388  0.10287389    -0.39600
O1862       O  0.18899321  0.72717689  0.10308325    -0.39600
C1863       C  0.27836293  0.73976335  0.23893266    -0.11900
C1864       C  0.25442173  0.75328056  0.22757360     0.05100
C1865       C  0.23003034  0.76785372  0.23815478    -0.07200
C1866       C  0.23049581  0.76933922  0.25957607    -0.08000
C1867       C  0.25440434  0.75588173  0.27081831    -0.02500
C1868       C  0.27832999  0.74059807  0.26041178     0.04300
N1869       N  0.30337989  0.72704043  0.27140085     0.66800
H1870       H  0.29723083  0.72831967  0.23108318     0.15700
H1871       H  0.21189610  0.78108359  0.26753422     0.15400
N1872       N  0.20518806  0.78224553  0.22742822     0.74500
O1873       O  0.30295966  0.69868461  0.27521760    -0.38900
O1874       O  0.32819776  0.74170948  0.27341604    -0.38900
O1875       O  0.17936621  0.76912888  0.22662131    -0.39600
O1876       O  0.20709647  0.81026863  0.22282399    -0.39600
C1877       C  0.28911098  0.50228947  0.07182148    -0.11900
C1878       C  0.26073755  0.00880598  0.06132793     0.05100
C1879       C  0.23399890  0.01571429  0.07274066    -0.07200
C1880       C  0.23451504  0.01346450  0.09412206    -0.08000
C1881       C  0.26138266  0.00506510  0.10473327    -0.02500
C1882       C  0.28887014  0.50053837  0.09325471     0.04300
N1883       N  0.31670319  0.49230881  0.10362026     0.66800
H1884       H  0.31028722  0.49685610  0.06376420     0.15700
H1885       H  0.21364405  0.01896766  0.10251498     0.15400
N1886       N  0.20642291  0.02623609  0.06302175     0.74500
O1887       O  0.32345429  0.46433021  0.10578763    -0.38900
O1888       O  0.33726425  0.51232862  0.10628679    -0.38900
O1889       O  0.18378786  0.00832815  0.06136885    -0.39600
O1890       O  0.20239981  0.05465324  0.06045256    -0.39600
C1891       C  0.28417721  0.89352404  0.16654982    -0.11900
C1892       C  0.25607151  0.90944022  0.16587187     0.05100
C1893       C  0.22844613  0.89232905  0.16548553    -0.07200
C1894       C  0.22955335  0.86022951  0.16553715    -0.08000
C1895       C  0.25769166  0.84434659  0.16608749    -0.02500
C1896       C  0.28528632  0.86147606  0.16669217     0.04300
N1897       N  0.31474983  0.84688299  0.16740201     0.66800
H1898       H  0.30574906  0.90602090  0.16696645     0.15700
H1899       H  0.20801177  0.84767084  0.16519733     0.15400
N1900       N  0.19900221  0.90697486  0.16511986     0.74500
O1901       O  0.32909096  0.84193239  0.15092009    -0.38900
O1902       O  0.32885878  0.84487907  0.18430169    -0.38900
O1903       O  0.18438856  0.90878407  0.14840250    -0.39600
O1904       O  0.18502991  0.91169887  0.18177286    -0.39600
C1905       C  0.28319017  0.60970746  0.16283609    -0.11900
C1906       C  0.25561364  0.59439958  0.16710720     0.05100
C1907       C  0.22888615  0.61196036  0.17107854    -0.07200
C1908       C  0.23017160  0.64398425  0.17046897    -0.08000
C1909       C  0.25766391  0.65933846  0.16602665    -0.02500
C1910       C  0.28449191  0.64176022  0.16221664     0.04300
N1911       N  0.31311258  0.65587987  0.15720124     0.66800
H1912       H  0.30398279  0.59669344  0.15960351     0.15700
H1913       H  0.20934658  0.65692929  0.17370911     0.15400
N1914       N  0.20038914  0.59781182  0.17633321     0.74500
O1915       O  0.33290860  0.66011850  0.17112674    -0.38900
O1916       O  0.32113227  0.65756696  0.13865497    -0.38900
O1917       O  0.19240646  0.59679790  0.19490406    -0.39600
O1918       O  0.18057108  0.59301859  0.16250554    -0.39600
C1919       C  0.26862977  0.97250485  0.23723626    -0.11900
C1920       C  0.25459135  0.99773925  0.22776486     0.05100
C1921       C  0.23460101  0.51939188  0.23885929    -0.07200
C1922       C  0.23420528  0.51606029  0.26016825    -0.08000
C1923       C  0.25055478  0.99006007  0.27054953    -0.02500
C1924       C  0.26664662  0.96836976  0.25847314     0.04300
N1925       N  0.28204767  0.94274730  0.26753967     0.66800
H1926       H  0.28093463  0.95566727  0.22802781     0.15700
H1927       H  0.22317743  0.53373679  0.26938219     0.15400
N1928       N  0.22158608  0.54633297  0.22987883     0.74500
O1929       O  0.26932313  0.91676602  0.26721887    -0.38900
O1930       O  0.31041696  0.94457516  0.27152397    -0.38900
O1931       O  0.19275901  0.54864439  0.22813813    -0.39600
O1932       O  0.23809176  0.56987117  0.22774602    -0.39600
C1933       C  0.45835470  0.75033138  0.09731175    -0.11900
C1934       C  0.98723524  0.74791976  0.10699967     0.05100
C1935       C  0.01369210  0.74558708  0.09454542    -0.07200
C1936       C  0.01075777  0.74553016  0.07317466    -0.08000
C1937       C  0.98191195  0.74788924  0.06345694    -0.02500
C1938       C  0.45545194  0.75037880  0.07585168     0.04300
N1939       N  0.42543987  0.75331401  0.06705002     0.66800
H1940       H  0.43760532  0.75231813  0.10646576     0.15700
H1941       H  0.03159322  0.74354925  0.06410713     0.15400
N1942       N  0.04383656  0.74311198  0.10320748     0.74500
O1943       O  0.40937985  0.72959874  0.06420698    -0.38900
O1944       O  0.41269466  0.77935130  0.06650667    -0.38900
O1945       O  0.55679448  0.71748946  0.10425490    -0.39600
O1946       O  0.05993101  0.76696315  0.10536856    -0.39600
C1947       C  0.47727363  0.77608923  0.26335155    -0.11900
C1948       C  0.99945839  0.75904334  0.27388448     0.05100
C1949       C  0.01970915  0.74009895  0.26266345    -0.07200
C1950       C  0.01738392  0.73867190  0.24125128    -0.08000
C1951       C  0.99488644  0.75555069  0.23067163    -0.02500
C1952       C  0.47465771  0.77442481  0.24194441     0.04300
N1953       N  0.45222134  0.79313874  0.23186201     0.66800
H1954       H  0.46158130  0.79085910  0.27185292     0.15700
H1955       H  0.03333524  0.72412452  0.23280513     0.15400
N1956       N  0.04371683  0.72338394  0.27269485     0.74500
O1957       O  0.42462412  0.78431368  0.23101664    -0.38900
O1958       O  0.45847565  0.82075530  0.22794150    -0.38900
O1959       O  0.04183806  0.69458929  0.27412095    -0.39600
O1960       O  0.06913507  0.73635264  0.27616989    -0.39600
C1961       C  0.01614102  0.00460988  0.09495573    -0.11900
C1962       C  0.98971237  0.50366022  0.10610623     0.05100
C1963       C  0.46212373  0.50364045  0.09460444    -0.07200
C1964       C  0.46320945  0.50294415  0.07318756    -0.08000
C1965       C  0.99129287  0.50223575  0.06265427    -0.02500
C1966       C  0.01688221  0.00470014  0.07352220     0.04300
N1967       N  0.04577612  0.00932177  0.06362973     0.66800
H1968       H  0.03760490  0.00779454  0.10328550     0.15700
H1969       H  0.44159163  0.50261915  0.06476137     0.15400
N1970       N  0.43270924  0.50383948  0.10431057     0.74500
O1971       O  0.05476303  0.03628940  0.06009647    -0.38900
O1972       O  0.06474210  0.98741049  0.06251352    -0.38900
O1973       O  0.41772451  0.52861827  0.10548952    -0.39600
O1974       O  0.41922727  0.47875355  0.10763619    -0.39600
C1975       C  0.01850465  0.89175643  0.16468997    -0.11900
C1976       C  0.49062135  0.90742172  0.16744450     0.05100
C1977       C  0.46356374  0.89018723  0.17062005    -0.07200
C1978       C  0.46492714  0.85816907  0.17055666    -0.08000
C1979       C  0.49280848  0.84246577  0.16758680    -0.02500
C1980       C  0.01991223  0.85970429  0.16480004     0.04300
N1981       N  0.04912941  0.84521983  0.16195723     0.66800
H1982       H  0.03966854  0.90445131  0.16233995     0.15700
H1983       H  0.44378601  0.84551647  0.17307471     0.15400
N1984       N  0.43454813  0.90462132  0.17435131     0.74500
O1985       O  0.05894461  0.84067060  0.14400727    -0.38900
O1986       O  0.06754278  0.84328959  0.17691552    -0.38900
O1987       O  0.41548023  0.90722804  0.15981849    -0.39600
O1988       O  0.42534897  0.90777183  0.19256909    -0.39600
C1989       C  0.01806879  0.64190626  0.16682661    -0.11900
C1990       C  0.49038390  0.65748354  0.17090188     0.05100
C1991       C  0.46376063  0.63998620  0.17493501    -0.07200
C1992       C  0.46531390  0.60787441  0.17464303    -0.08000
C1993       C  0.49290566  0.59230614  0.17028156    -0.02500
C1994       C  0.01957122  0.60982991  0.16635277     0.04300
N1995       N  0.04814266  0.59565214  0.16102807     0.66800
H1996       H  0.03884572  0.65471014  0.16346483     0.15700
H1997       H  0.44450618  0.59503095  0.17784263     0.15400
N1998       N  0.43492504  0.65425716  0.17942313     0.74500
O1999       O  0.05410357  0.59062476  0.14238282    -0.38900
O2000       O  0.06966910  0.59488669  0.17406087    -0.38900
O2001       O  0.41456094  0.65576163  0.16561132    -0.39600
O2002       O  0.42747385  0.65881394  0.19787577    -0.39600
C2003       C  0.01445931  0.51163776  0.24006672    -0.11900
C2004       C  0.99393550  0.99552447  0.22870347     0.05100
C2005       C  0.47531580  0.97458372  0.23924168    -0.07200
C2006       C  0.47727572  0.97248702  0.26056075    -0.08000
C2007       C  0.99705560  0.99139067  0.27170731    -0.02500
C2008       C  0.01621620  0.50968167  0.26139619     0.04300
N2009       N  0.03701124  0.52937678  0.27208293     0.66800
H2010       H  0.02796051  0.52889944  0.23217457     0.15700
H2011       H  0.46279396  0.95610695  0.26850182     0.15400
N2012       N  0.45530246  0.95416988  0.22847542     0.74500
O2013       O  0.06527481  0.52273120  0.27215361    -0.38900
O2014       O  0.02872234  0.55639114  0.27642127    -0.38900
O2015       O  0.46320461  0.92648159  0.22626991    -0.39600
O2016       O  0.42753569  0.96169224  0.22576213    -0.39600
O2017       O  0.51661185  0.04310501  0.16686760    -0.71400
O2018       O  0.51602961  0.45576452  0.16654996    -0.71600
O2019       O  0.51467933  0.99935727  0.13787322    -0.71500
O2020       O  0.51828845  0.49792935  0.19631004    -0.71500
O2021       O  0.96747505  0.99814855  0.19684074    -0.71500
O2022       O  0.96568173  0.50348688  0.13925336    -0.71500
O2023       O  0.96608547  0.45670155  0.16607452    -0.71400
O2024       O  0.96677908  0.04357997  0.16892420    -0.71600
V2025       V  0.51516621  0.99957256  0.16694741     1.35200
V2026       V  0.96791683  0.50004181  0.16826586     1.35200
C2027       C  0.99180433  0.05829568  0.16803031     0.77800
C2028       C  0.99075140  0.44131730  0.16618096     0.77900
C2029       C  0.48928306  0.00046623  0.12836047     0.77700
C2030       C  0.49384930  0.49543578  0.20656017     0.77700
O2031       O  0.96729699  0.25229333  0.19851886    -0.71400
O2032       O  0.96376812  0.24935074  0.14025996    -0.71600
O2033       O  0.96460826  0.20703156  0.17024765    -0.71500
O2034       O  0.96672320  0.29409215  0.16847773    -0.71500
O2035       O  0.51662774  0.29281969  0.16773275    -0.71500
O2036       O  0.51441489  0.20593773  0.16845183    -0.71500
O2037       O  0.51365676  0.24865188  0.13900529    -0.71400
O2038       O  0.51718449  0.24982383  0.19726576    -0.71600
V2039       V  0.96655413  0.25064041  0.16935999     1.35200
V2040       V  0.51449770  0.24934310  0.16815490     1.35200
C2041       C  0.49286065  0.25145077  0.20781788     0.77800
C2042       C  0.48811530  0.24869905  0.12964221     0.77900
C2043       C  0.98924774  0.19154934  0.16949713     0.77700
C2044       C  0.99199899  0.30836876  0.16778715     0.77700
O2045       O  0.77691929  0.49953096  0.19566006    -0.71400
O2046       O  0.78476424  0.00296001  0.13810030    -0.71600
O2047       O  0.78367354  0.04505079  0.16833007    -0.71500
O2048       O  0.77916204  0.45816235  0.16554168    -0.71500
O2049       O  0.72933721  0.45889789  0.16388375    -0.71500
O2050       O  0.73387350  0.04599038  0.16622498    -0.71500
O2051       O  0.73322305  0.50334575  0.13542464    -0.71400
O2052       O  0.73143609  0.00238251  0.19490377    -0.71600
V2053       V  0.77883605  0.50163179  0.16672948     1.35200
V2054       V  0.73095440  0.50244121  0.16448816     1.35200
C2055       C  0.75106975  0.49993035  0.20438564     0.77800
C2056       C  0.75919949  0.50412999  0.12671115     0.77900
C2057       C  0.75892481  0.06044011  0.16759457     0.77700
C2058       C  0.75403939  0.44359107  0.16468518     0.77700
O2059       O  0.73454754  0.20800380  0.16629704    -0.71400
O2060       O  0.73241631  0.29519119  0.16575149    -0.71600
O2061       O  0.73338992  0.25128866  0.13691182    -0.71500
O2062       O  0.73297981  0.25228245  0.19503800    -0.71500
O2063       O  0.78290691  0.25137060  0.19540069    -0.71500
O2064       O  0.78318204  0.25380406  0.13710942    -0.71500
O2065       O  0.78223959  0.29591352  0.16713699    -0.71400
O2066       O  0.78439152  0.20902523  0.16543150    -0.71600
V2067       V  0.73428679  0.25162505  0.16599191     1.35200
V2068       V  0.78222127  0.25248691  0.16625239     1.35200
C2069       C  0.75989155  0.19357032  0.16594417     0.77800
C2070       C  0.75710577  0.31048874  0.16654830     0.77900
C2071       C  0.75823185  0.25315931  0.12701871     0.77700
C2072       C  0.75779807  0.25208040  0.20516180     0.77700
O2073       O  0.53908277  0.01045655  0.33508112    -0.71400
O2074       O  0.95179532  0.00937007  0.33291875    -0.71600
O2075       O  0.49387345  0.00711895  0.36300441    -0.71500
O2076       O  0.99729270  0.01296933  0.30518233    -0.71500
O2077       O  0.49761735  0.46028686  0.30340909    -0.71500
O2078       O  0.99769143  0.45695699  0.36175912    -0.71500
O2079       O  0.95401248  0.45747144  0.33245899    -0.71400
O2080       O  0.54147535  0.45977888  0.33243651    -0.71600
V2081       V  0.49546359  0.00908848  0.33405620     1.35200
V2082       V  0.99772305  0.45950921  0.33259780     1.35200
C2083       C  0.55566428  0.48507980  0.33347799     0.77800
C2084       C  0.93865996  0.48215750  0.33229725     0.77900
C2085       C  0.49613528  0.48112645  0.37218169     0.77700
C2086       C  0.49858285  0.48585170  0.29431052     0.77700
O2087       O  0.54795793  0.28466833  0.33178940    -0.71400
O2088       O  0.96103364  0.28282951  0.33645219    -0.71600
O2089       O  0.50784262  0.28724867  0.36305279    -0.71500
O2090       O  0.00069211  0.28070197  0.30523969    -0.71500
O2091       O  0.50543635  0.23124327  0.30712346    -0.71500
O2092       O  0.00596061  0.23733546  0.36543817    -0.71500
O2093       O  0.96208317  0.23308953  0.33653013    -0.71400
O2094       O  0.54912543  0.23533697  0.33596397    -0.71600
V2095       V  0.50445080  0.28298265  0.33411756     1.35200
V2096       V  0.00565480  0.23509192  0.33627056     1.35200
C2097       C  0.56344658  0.26016715  0.33324481     0.77800
C2098       C  0.94660818  0.25765543  0.33681593     0.77900
C2099       C  0.50731738  0.26359334  0.37419619     0.77700
C2100       C  0.50238596  0.25505390  0.29624715     0.77700
O2101       O  0.74859741  0.46328911  0.30154319    -0.71400
O2102       O  0.74621020  0.46084553  0.35980740    -0.71600
O2103       O  0.70398528  0.46133832  0.32993845    -0.71500
O2104       O  0.79075365  0.46231415  0.33148035    -0.71500
O2105       O  0.78885615  0.01047774  0.33308851    -0.71500
O2106       O  0.70173617  0.00825764  0.33242455    -0.71500
O2107       O  0.74468353  0.00714114  0.36192010    -0.71400
O2108       O  0.74580501  0.01152125  0.30390225    -0.71600
V2109       V  0.74738458  0.46292306  0.33071013     1.35200
V2110       V  0.74527053  0.00837947  0.33282464     1.35200
C2111       C  0.74775700  0.48871273  0.29225988     0.77800
C2112       C  0.74601225  0.48532731  0.37032042     0.77900
C2113       C  0.68860687  0.48586562  0.33101099     0.77700
C2114       C  0.80555815  0.48718388  0.33157687     0.77700
O2115       O  0.75624329  0.28049103  0.30274156    -0.71400
O2116       O  0.75218998  0.28407568  0.36084766    -0.71600
O2117       O  0.79791762  0.28320765  0.33321380    -0.71500
O2118       O  0.71103367  0.28151323  0.33038435    -0.71500
O2119       O  0.71180135  0.23177144  0.33060885    -0.71500
O2120       O  0.79884257  0.23359642  0.33547993    -0.71500
O2121       O  0.75181193  0.23433169  0.36198094    -0.71400
O2122       O  0.75919433  0.23072488  0.30404795    -0.71600
V2123       V  0.75441715  0.28135385  0.33180622     1.35200
V2124       V  0.75538555  0.23354641  0.33299894     1.35200
C2125       C  0.75852529  0.25501234  0.29355677     0.77800
C2126       C  0.75088555  0.25977591  0.37133967     0.77900
C2127       C  0.81331047  0.25872580  0.33493591     0.77700
C2128       C  0.69647518  0.25647602  0.33006916     0.77700
O2129       O  0.49706064  0.46065007  0.47132568    -0.71400
O2130       O  0.99713447  0.46209095  0.52933327    -0.71600
O2131       O  0.95379608  0.46120237  0.50016221    -0.71500
O2132       O  0.54059541  0.46154068  0.50046325    -0.71500
O2133       O  0.54093145  0.00512613  0.50019412    -0.71500
O2134       O  0.95352764  0.00525636  0.49964674    -0.71500
O2135       O  0.49695231  0.00544427  0.52888596    -0.71400
O2136       O  0.99742407  0.00533398  0.47088059    -0.71600
V2137       V  0.49717678  0.46239061  0.50036584     1.35200
V2138       V  0.49721667  0.00439506  0.49988015     1.35200
C2139       C  0.49663539  0.48525619  0.46113130     0.77800
C2140       C  0.49697132  0.48716550  0.53925941     0.77900
C2141       C  0.93857754  0.48591160  0.49983778     0.77700
C2142       C  0.55554074  0.48634357  0.50031789     0.77700
O2143       O  0.95809826  0.29726828  0.50149776    -0.71400
O2144       O  0.54528215  0.29709594  0.50173495    -0.71600
O2145       O  0.00190068  0.29649277  0.47248838    -0.71500
O2146       O  0.50181459  0.29762842  0.53109459    -0.71500
O2147       O  0.00164253  0.24793710  0.53112111    -0.71500
O2148       O  0.50244540  0.24659933  0.47329351    -0.71500
O2149       O  0.54543950  0.24728381  0.50266013    -0.71400
O2150       O  0.95827591  0.24753453  0.50166789    -0.71600
V2151       V  0.00174371  0.29624387  0.50175366     1.35200
V2152       V  0.50187661  0.24830466  0.50221630     1.35200
C2153       C  0.94322298  0.27240362  0.50118262     0.77800
C2154       C  0.56019662  0.27217974  0.50195576     0.77900
C2155       C  0.50212746  0.27102279  0.46295323     0.77700
C2156       C  0.50207000  0.27276785  0.54112282     0.77700
O2157       O  0.74568824  0.99905515  0.46989857    -0.71400
O2158       O  0.74864247  0.00144176  0.52782467    -0.71600
O2159       O  0.79068648  0.00025494  0.49803415    -0.71500
O2160       O  0.70373749  0.99990643  0.49965401    -0.71500
O2161       O  0.70348060  0.45553370  0.49944530    -0.71500
O2162       O  0.79083037  0.45521428  0.49802143    -0.71500
O2163       O  0.74832750  0.45620621  0.52794742    -0.71400
O2164       O  0.74590488  0.45467290  0.46945182    -0.71600
V2165       V  0.74721238  0.99913595  0.49884733     1.35200
V2166       V  0.74714325  0.45630427  0.49870553     1.35200
C2167       C  0.74561588  0.47945740  0.45937757     0.77800
C2168       C  0.74835540  0.48143589  0.53767486     0.77900
C2169       C  0.80561270  0.48014629  0.49783690     0.77700
C2170       C  0.68865568  0.48053302  0.49945694     0.77700
O2171       O  0.75046409  0.29025240  0.46882382    -0.71400
O2172       O  0.75225097  0.29745732  0.52698852    -0.71600
O2173       O  0.79495893  0.29340680  0.49731830    -0.71500
O2174       O  0.70786017  0.29448715  0.49832228    -0.71500
O2175       O  0.70750812  0.24480593  0.50071534    -0.71500
O2176       O  0.79490689  0.24383192  0.49999325    -0.71500
O2177       O  0.75144958  0.24776461  0.52916459    -0.71400
O2178       O  0.75067922  0.24062360  0.47127592    -0.71600
V2179       V  0.75143487  0.29294028  0.49788524     1.35200
V2180       V  0.75118151  0.24522273  0.50023446     1.35200
C2181       C  0.75030757  0.26424709  0.46011440     0.77800
C2182       C  0.75139820  0.27362880  0.53798729     0.77900
C2183       C  0.80989777  0.26853547  0.49845691     0.77700
C2184       C  0.69281551  0.26986715  0.49995860     0.77700
O2185       O  0.96335784  0.04044161  0.99965604    -0.71400
O2186       O  0.96336542  0.45376591  0.00246239    -0.71600
O2187       O  0.96349416  0.99892566  0.02978183    -0.71500
O2188       O  0.96240748  0.49545989  0.97220829    -0.71500
O2189       O  0.51128009  0.99327290  0.97119821    -0.71500
O2190       O  0.51527813  0.49911411  0.02956003    -0.71500
O2191       O  0.51326520  0.45283218  0.00221377    -0.71400
O2192       O  0.51319145  0.03950954  0.99875150    -0.71600
V2193       V  0.96336514  0.99709264  0.00067694     1.35200
V2194       V  0.51282964  0.49643464  0.00053318     1.35200
C2195       C  0.48846059  0.05492144  0.99902678     0.77800
C2196       C  0.48808440  0.43836301  0.00281556     0.77900
C2197       C  0.48882062  0.99933222  0.03944354     0.77700
C2198       C  0.48613412  0.99330453  0.96137367     0.77700
O2199       O  0.95795983  0.29039123  0.00075047    -0.71400
O2200       O  0.95861668  0.20311506  0.00131072    -0.71600
O2201       O  0.95695385  0.24765235  0.03034703    -0.71500
O2202       O  0.95990554  0.24597425  0.97179650    -0.71500
O2203       O  0.50975161  0.24644624  0.97315143    -0.71500
O2204       O  0.50686692  0.24712047  0.03109154    -0.71500
O2205       O  0.50846793  0.20335047  0.00214044    -0.71400
O2206       O  0.50780795  0.29030836  0.00219281    -0.71600
V2207       V  0.95925938  0.24676989  0.00105939     1.35200
V2208       V  0.50719354  0.24684086  0.00212845     1.35200
C2209       C  0.48284323  0.30528277  0.00168113     0.77800
C2210       C  0.48368459  0.18824394  0.00154524     0.77900
C2211       C  0.48168874  0.24771724  0.04069478     0.77700
C2212       C  0.48547668  0.24560905  0.96249060     0.77700
O2213       O  0.78845341  0.50839878  0.02844095    -0.71400
O2214       O  0.78689599  0.00967650  0.97060604    -0.71600
O2215       O  0.78616613  0.05253180  0.00014614    -0.71500
O2216       O  0.78887814  0.46505082  0.99885304    -0.71500
O2217       O  0.73897613  0.46548885  0.99929322    -0.71500
O2218       O  0.73632362  0.05229707  0.99914144    -0.71500
O2219       O  0.73953280  0.50829694  0.96983243    -0.71400
O2220       O  0.73622815  0.00915189  0.02835778    -0.71600
V2221       V  0.78810312  0.50860397  0.99926208     1.35200
V2222       V  0.74015510  0.50907113  0.99882754     1.35200
C2223       C  0.76323581  0.50973757  0.03807330     0.77800
C2224       C  0.76447886  0.50872391  0.96000000     0.77900
C2225       C  0.76117141  0.06735388  0.99962881     0.77700
C2226       C  0.76387221  0.45035105  0.99898634     0.77700
O2227       O  0.73512916  0.25970567  0.02812889    -0.71400
O2228       O  0.73385248  0.25859920  0.96973324    -0.71600
O2229       O  0.73360875  0.21579999  0.99922742    -0.71500
O2230       O  0.73497777  0.30289006  0.99893242    -0.71500
O2231       O  0.78488586  0.30203756  0.99877255    -0.71500
O2232       O  0.78346216  0.21501274  0.99872176    -0.71500
O2233       O  0.78376615  0.25829623  0.96961076    -0.71400
O2234       O  0.78497576  0.25849808  0.02781072    -0.71600
V2235       V  0.73533901  0.25929717  0.99897672     1.35200
V2236       V  0.78328670  0.25850135  0.99871038     1.35200
C2237       C  0.76030045  0.25896475  0.03797447     0.77800
C2238       C  0.75872384  0.25792561  0.95968640     0.77900
C2239       C  0.75831128  0.20047421  0.99910851     0.77700
C2240       C  0.76013347  0.31737239  0.99909018     0.77700
O2241       O  0.51908772  0.98840697  0.80473277    -0.71400
O2242       O  0.51586849  0.48947966  0.86362424    -0.71600
O2243       O  0.51840999  0.44601418  0.83457597    -0.71500
O2244       O  0.51815803  0.03256868  0.83390560    -0.71500
O2245       O  0.96831450  0.03304916  0.83373292    -0.71500
O2246       O  0.96853531  0.44498159  0.83399055    -0.71500
O2247       O  0.96686411  0.98850572  0.86194970    -0.71400
O2248       O  0.96838656  0.48724516  0.80433132    -0.71600
V2249       V  0.51607838  0.48950188  0.83442442     1.35200
V2250       V  0.96816116  0.48837929  0.83345779     1.35200
C2251       C  0.49365957  0.48736708  0.79476002     0.77800
C2252       C  0.49048657  0.48916318  0.87305535     0.77900
C2253       C  0.49384132  0.43060219  0.83444601     0.77700
C2254       C  0.49327555  0.04775362  0.83412359     0.77700
O2255       O  0.52181259  0.24040410  0.80649284    -0.71400
O2256       O  0.51602945  0.24006278  0.86463365    -0.71600
O2257       O  0.52028118  0.19645815  0.83553212    -0.71500
O2258       O  0.51778870  0.28341428  0.83569967    -0.71500
O2259       O  0.96817371  0.28247404  0.83223137    -0.71500
O2260       O  0.97044154  0.19554996  0.83439110    -0.71500
O2261       O  0.96626139  0.24080011  0.86233687    -0.71400
O2262       O  0.97209319  0.23746728  0.80422994    -0.71600
V2263       V  0.51802849  0.24000620  0.83553619     1.35200
V2264       V  0.97020046  0.23900751  0.83332773     1.35200
C2265       C  0.49786680  0.23932486  0.79541519     0.77800
C2266       C  0.49014465  0.24100798  0.87345626     0.77900
C2267       C  0.49571217  0.18103914  0.83524216     0.77700
C2268       C  0.49265033  0.29782269  0.83387384     0.77700
O2269       O  0.73538309  0.46418582  0.83318376    -0.71400
O2270       O  0.74034722  0.05003036  0.83258963    -0.71600
O2271       O  0.73606190  0.50682303  0.80373921    -0.71500
O2272       O  0.74091927  0.00703554  0.86166557    -0.71500
O2273       O  0.79023940  0.50733166  0.86048511    -0.71500
O2274       O  0.78833558  0.00391781  0.80273447    -0.71500
O2275       O  0.79017725  0.04957615  0.83105329    -0.71400
O2276       O  0.78519276  0.46128112  0.83314951    -0.71600
V2277       V  0.73924828  0.50763064  0.83271001     1.35200
V2278       V  0.78867602  0.00594138  0.83195810     1.35200
C2279       C  0.75943471  0.44783122  0.83322855     0.77800
C2280       C  0.76535071  0.06474001  0.83180858     0.77900
C2281       C  0.75999128  0.50258821  0.79318508     0.77700
C2282       C  0.76592221  0.50855123  0.87104932     0.77700
O2283       O  0.73373186  0.25473247  0.80245509    -0.71400
O2284       O  0.73550578  0.25702297  0.86078070    -0.71600
O2285       O  0.73421504  0.29970302  0.83103287    -0.71500
O2286       O  0.73515420  0.21246315  0.83215679    -0.71500
O2287       O  0.78501685  0.21301796  0.83132462    -0.71500
O2288       O  0.78408504  0.29989494  0.83102983    -0.71500
O2289       O  0.78540612  0.25700434  0.86039558    -0.71400
O2290       O  0.78368245  0.25627037  0.80209855    -0.71600
V2291       V  0.73559632  0.25603169  0.83162187     1.35200
V2292       V  0.78355897  0.25649329  0.83121750     1.35200
C2293       C  0.75849169  0.25525150  0.79235853     0.77800
C2294       C  0.76070352  0.25729987  0.87058151     0.77900
C2295       C  0.75909929  0.31474126  0.83086639     0.77700
C2296       C  0.76029068  0.19781144  0.83169896     0.77700
O2297       O  0.95531107  0.00572639  0.66591216    -0.71400
O2298       O  0.54216559  0.00642929  0.66676018    -0.71600
O2299       O  0.99915523  0.00452808  0.63731838    -0.71500
O2300       O  0.49788579  0.00763394  0.69534672    -0.71500
O2301       O  0.99971348  0.45641617  0.69627537    -0.71500
O2302       O  0.49839187  0.45725552  0.63793425    -0.71500
O2303       O  0.54270715  0.45718835  0.66679147    -0.71400
O2304       O  0.95532630  0.45634832  0.66741871    -0.71600
V2305       V  0.99869854  0.00511622  0.66634254     1.35200
V2306       V  0.49901474  0.45768534  0.66708264     1.35200
C2307       C  0.94024581  0.48119181  0.66711827     0.77800
C2308       C  0.55724394  0.48227187  0.66716873     0.77900
C2309       C  0.49807286  0.48232340  0.62821364     0.77700
C2310       C  0.49887174  0.48116096  0.70624204     0.77700
O2311       O  0.00205926  0.23327692  0.69576334    -0.71400
O2312       O  0.50578534  0.24351612  0.63836373    -0.71600
O2313       O  0.54770512  0.23893095  0.66842975    -0.71500
O2314       O  0.96032073  0.23847660  0.66555604    -0.71500
O2315       O  0.95987815  0.28724420  0.67249436    -0.71500
O2316       O  0.54692285  0.28864095  0.66951600    -0.71500
O2317       O  0.00089799  0.29282710  0.64184038    -0.71400
O2318       O  0.50618964  0.28259459  0.69999752    -0.71600
V2319       V  0.50397909  0.23947621  0.66713474     1.35200
V2320       V  0.50345470  0.28694507  0.67091998     1.35200
C2321       C  0.50426251  0.25604037  0.70770174     0.77800
C2322       C  0.50317895  0.26961164  0.63016204     0.77900
C2323       C  0.56230940  0.26403740  0.66900360     0.77700
C2324       C  0.94519066  0.26281878  0.66890578     0.77700
O2325       O  0.74812800  0.01561703  0.69447470    -0.71400
O2326       O  0.74934933  0.00820681  0.63642034    -0.71600
O2327       O  0.70507212  0.01201711  0.66505155    -0.71500
O2328       O  0.79247833  0.01176148  0.66599999    -0.71500
O2329       O  0.79197941  0.46235077  0.66658247    -0.71500
O2330       O  0.70515684  0.46335529  0.66777676    -0.71500
O2331       O  0.74762093  0.45978950  0.63800820    -0.71400
O2332       O  0.74980906  0.46614486  0.69632283    -0.71600
V2333       V  0.74874856  0.01096589  0.66550316     1.35200
V2334       V  0.74858577  0.46388775  0.66714701     1.35200
C2335       C  0.74992264  0.49210290  0.70510715     0.77800
C2336       C  0.74789249  0.48363421  0.62698935     0.77900
C2337       C  0.69018291  0.48819465  0.66677509     0.77700
C2338       C  0.80718873  0.48690709  0.66540866     0.77700
O2339       O  0.79789893  0.24019680  0.66125033    -0.71400
O2340       O  0.71105270  0.23911453  0.66623426    -0.71600
O2341       O  0.75025667  0.24341887  0.63482683    -0.71500
O2342       O  0.75807095  0.23653753  0.69280646    -0.71500
O2343       O  0.75700038  0.28625323  0.69537656    -0.71500
O2344       O  0.75137695  0.29306764  0.63758272    -0.71500
O2345       O  0.71046018  0.28878075  0.66820406    -0.71400
O2346       O  0.79773599  0.28974956  0.66498434    -0.71600
V2347       V  0.75439772  0.24076738  0.66381371     1.35200
V2348       V  0.75412602  0.28849329  0.66644705     1.35200
C2349       C  0.81268322  0.26502176  0.66274606     0.77800
C2350       C  0.69582498  0.26367634  0.66793887     0.77900
C2351       C  0.74939300  0.26949737  0.62634821     0.77700
C2352       C  0.75850907  0.26038907  0.70395042     0.77700
C2353       C  0.89630024  0.24325847  0.65400776    -0.11900
C2354       C  0.91123025  0.26300074  0.66785847     0.05100
C2355       C  0.89349734  0.28371891  0.67960535    -0.07200
C2356       C  0.86157005  0.28481423  0.67699744    -0.08000
C2357       C  0.84662507  0.26499860  0.66324629    -0.02500
C2358       C  0.86427483  0.24409709  0.65159722     0.04300
N2359       N  0.85021325  0.22469250  0.63656431     0.66800
H2360       H  0.90966359  0.22754926  0.64457951     0.15700
H2361       H  0.84820475  0.30048896  0.68645017     0.15400
N2362       N  0.90728818  0.30227876  0.69521809     0.74500
O2363       O  0.84655225  0.23445260  0.61851155    -0.38900
O2364       O  0.84737753  0.19640455  0.64011258    -0.38900
O2365       O  0.90969778  0.33083106  0.69257011    -0.39600
O2366       O  0.91119188  0.29128182  0.71292776    -0.39600
C2367       C  0.61259443  0.23658011  0.67057881    -0.11900
C2368       C  0.59647860  0.26445393  0.66915081     0.05100
C2369       C  0.61347395  0.29204995  0.66808405    -0.07200
C2370       C  0.64561984  0.29114224  0.66802649    -0.08000
C2371       C  0.66173063  0.26326391  0.66914052    -0.02500
C2372       C  0.64477485  0.23570157  0.67076438     0.04300
N2373       N  0.65969964  0.20664698  0.67306213     0.66800
H2374       H  0.60012237  0.21505552  0.67177850     0.15700
H2375       H  0.65806451  0.31268413  0.66685815     0.15400
N2376       N  0.59862469  0.32127450  0.66689094     0.74500
O2377       O  0.66599026  0.19696598  0.69081817    -0.38900
O2378       O  0.66074571  0.18834008  0.65804050    -0.38900
O2379       O  0.59600574  0.33743004  0.68289287    -0.39600
O2380       O  0.59396205  0.33333092  0.64957933    -0.39600
C2381       C  0.85605535  0.45765763  0.66917779    -0.11900
C2382       C  0.84124453  0.48577755  0.66525229     0.05100
C2383       C  0.85950335  0.01274056  0.66765448    -0.07200
C2384       C  0.89154521  0.01036662  0.66772305    -0.08000
C2385       C  0.90621336  0.48175110  0.66647541    -0.02500
C2386       C  0.88813457  0.45535470  0.66970951     0.04300
N2387       N  0.90177923  0.42612087  0.67379147     0.66800
H2388       H  0.84266168  0.43711527  0.67201801     0.15700
H2389       H  0.90486050  0.03140994  0.66790015     0.15400
N2390       N  0.84593590  0.04262976  0.66820881     0.74500
O2391       O  0.90446051  0.41712411  0.69209185    -0.38900
O2392       O  0.90501410  0.40708289  0.65932466    -0.38900
O2393       O  0.84347997  0.05646010  0.68516579    -0.39600
O2394       O  0.84280370  0.05749176  0.65175106    -0.39600
C2395       C  0.60623586  0.01011302  0.67179818    -0.11900
C2396       C  0.59126138  0.48323121  0.66712878     0.05100
C2397       C  0.60940508  0.45749547  0.66187595    -0.07200
C2398       C  0.64142440  0.45988044  0.66186568    -0.08000
C2399       C  0.65617413  0.48753376  0.66691047    -0.02500
C2400       C  0.63829342  0.01236886  0.67198181     0.04300
N2401       N  0.65195795  0.04069797  0.67822262     0.66800
H2402       H  0.59279103  0.03011955  0.67622236     0.15700
H2403       H  0.65486758  0.43978680  0.65761750     0.15400
N2404       N  0.59583575  0.42895127  0.65602250     0.74500
O2405       O  0.65648979  0.06128050  0.66501913    -0.38900
O2406       O  0.65212543  0.04784857  0.69698911    -0.38900
O2407       O  0.59276358  0.42254790  0.63723421    -0.39600
O2408       O  0.59326815  0.90703777  0.66643045    -0.39600
C2409       C  0.77829016  0.27586250  0.75970294    -0.11900
C2410       C  0.75833880  0.25571100  0.76973047     0.05100
C2411       C  0.73887756  0.23664938  0.75793486    -0.07200
C2412       C  0.74011596  0.23770425  0.73647424    -0.08000
C2413       C  0.75965275  0.25830482  0.72649111    -0.02500
C2414       C  0.77870680  0.27773329  0.73829617     0.04300
N2415       N  0.79899906  0.29908243  0.72878488     0.66800
H2416       H  0.79328718  0.29082657  0.76860748     0.15700
H2417       H  0.72510732  0.22280403  0.72752878     0.15400
N2418       N  0.71854752  0.21539646  0.76745989     0.74500
O2419       O  0.79045800  0.32656195  0.72651922    -0.38900
O2420       O  0.82714830  0.29243330  0.72711222    -0.38900
O2421       O  0.69020052  0.22155815  0.76837875    -0.39600
O2422       O  0.72746401  0.18815928  0.77025952    -0.39600
C2423       C  0.78562361  0.39775400  0.82908768    -0.11900
C2424       C  0.75818327  0.41382560  0.83275736     0.05100
C2425       C  0.73066520  0.39698229  0.83516024    -0.07200
C2426       C  0.73139491  0.36482812  0.83424146    -0.08000
C2427       C  0.75903772  0.34881583  0.83082388    -0.02500
C2428       C  0.78632360  0.36582075  0.82793820     0.04300
N2429       N  0.81495263  0.35124209  0.82328510     0.66800
H2430       H  0.80701562  0.41009049  0.82670720     0.15700
H2431       H  0.71007044  0.35230282  0.83645626     0.15400
N2432       N  0.70188262  0.41194943  0.83875104     0.74500
O2433       O  0.82217069  0.34680635  0.80477588    -0.38900
O2434       O  0.83543520  0.34937533  0.83699803    -0.38900
O2435       O  0.68296174  0.41489018  0.82415312    -0.39600
O2436       O  0.69287328  0.41606549  0.85693500    -0.39600
C2437       C  0.73684639  0.11383453  0.82796626    -0.11900
C2438       C  0.76492168  0.09879713  0.83171422     0.05100
C2439       C  0.79142633  0.11670820  0.83546863    -0.07200
C2440       C  0.78928924  0.14876782  0.83530812    -0.08000
C2441       C  0.76114838  0.16377186  0.83162819    -0.02500
C2442       C  0.73467552  0.14582907  0.82789754     0.04300
N2443       N  0.70544914  0.15953635  0.82364350     0.66800
H2444       H  0.71613414  0.10062856  0.82490561     0.15700
H2445       H  0.80996000  0.16203191  0.83839481     0.15400
N2446       N  0.82047596  0.10291526  0.84012778     0.74500
O2447       O  0.69690231  0.16273316  0.80525868    -0.38900
O2448       O  0.68579761  0.16159838  0.83777920    -0.38900
O2449       O  0.84087127  0.10152549  0.82642982    -0.39600
O2450       O  0.82803358  0.09889269  0.85863770    -0.39600
C2451       C  0.73582478  0.01560844  0.76072978    -0.11900
C2452       C  0.75764728  0.49950179  0.77077489     0.05100
C2453       C  0.76972568  0.47381554  0.76035912    -0.07200
C2454       C  0.76670611  0.47163793  0.73899220    -0.08000
C2455       C  0.75155412  0.49464398  0.72775075    -0.02500
C2456       C  0.73167072  0.01249613  0.73955503     0.04300
N2457       N  0.70503631  0.02571685  0.73019881     0.66800
H2458       H  0.71914847  0.02889595  0.76943749     0.15700
H2459       H  0.77629563  0.45177870  0.73114809     0.15400
N2460       N  0.78320337  0.44887424  0.77140915     0.74500
O2461       O  0.68056860  0.01025132  0.72928251    -0.38900
O2462       O  0.70389127  0.05433263  0.72742984    -0.38900
O2463       O  0.76638839  0.42705829  0.77727022    -0.39600
O2464       O  0.81206223  0.44579730  0.77183272    -0.39600
C2465       C  0.97837296  0.23588938  0.73843302    -0.11900
C2466       C  0.50349196  0.25137885  0.73001595     0.05100
C2467       C  0.52746992  0.26136612  0.74293516    -0.07200
C2468       C  0.52565876  0.25630075  0.76411258    -0.08000
C2469       C  0.49997749  0.24172827  0.77277324    -0.02500
C2470       C  0.97621619  0.23127055  0.75961129     0.04300
N2471       N  0.94987659  0.21573453  0.76743780     0.66800
H2472       H  0.95994499  0.22777572  0.72849713     0.15700
H2473       H  0.54425005  0.26442532  0.77388705     0.15400
N2474       N  0.55419411  0.27573120  0.73469003     0.74500
O2475       O  0.92514683  0.23044672  0.77004718    -0.38900
O2476       O  0.94941448  0.18679016  0.76751374    -0.38900
O2477       O  0.55666966  0.30454566  0.73544115    -0.39600
O2478       O  0.57738199  0.25959539  0.73021086    -0.39600
C2479       C  0.96714741  0.38111094  0.82895986    -0.11900
C2480       C  0.49419586  0.39666908  0.83443301     0.05100
C2481       C  0.52060661  0.37941832  0.83970443    -0.07200
C2482       C  0.51941996  0.34739748  0.83934330    -0.08000
C2483       C  0.49236082  0.33178877  0.83388413    -0.02500
C2484       C  0.96593334  0.34909989  0.82866254     0.04300
N2485       N  0.93772257  0.33470190  0.82283779     0.66800
H2486       H  0.94654306  0.39387186  0.82475739     0.15700
H2487       H  0.53999918  0.33465399  0.84362005     0.15400
N2488       N  0.54853355  0.39382381  0.84611740     0.74500
O2489       O  0.91700318  0.33103147  0.83610459    -0.38900
O2490       O  0.93097645  0.33223818  0.80406010    -0.38900
O2491       O  0.55484118  0.39516133  0.86499970    -0.39600
O2492       O  0.56974358  0.39772567  0.83323653    -0.39600
C2493       C  0.52189785  0.09727780  0.83565085    -0.11900
C2494       C  0.49355434  0.08186208  0.83487697     0.05100
C2495       C  0.96617352  0.09953050  0.83502722    -0.07200
C2496       C  0.96768616  0.13153324  0.83530787    -0.08000
C2497       C  0.49597026  0.14695219  0.83572537    -0.02500
C2498       C  0.52338944  0.12938360  0.83627902     0.04300
N2499       N  0.55293150  0.14354535  0.83776547     0.66800
H2500       H  0.54329370  0.08432380  0.83592439     0.15700
H2501       H  0.94622344  0.14437825  0.83513150     0.15400
N2502       N  0.93649449  0.08552981  0.83498876     0.74500
O2503       O  0.56422968  0.14904189  0.85525445    -0.38900
O2504       O  0.57017057  0.14409557  0.82224129    -0.38900
O2505       O  0.92150554  0.08421895  0.85150393    -0.39600
O2506       O  0.92270962  0.08127164  0.81815325    -0.39600
C2507       C  0.51984108  0.97253948  0.76181189    -0.11900
C2508       C  0.49461221  0.48533016  0.77192981     0.05100
C2509       C  0.96737316  0.48523793  0.75981940    -0.07200
C2510       C  0.96932899  0.48342041  0.73842628    -0.08000
C2511       C  0.49797307  0.48126460  0.72870463    -0.02500
C2512       C  0.52129690  0.97044835  0.74036765     0.04300
N2513       N  0.54626558  0.95430768  0.73099244     0.66800
H2514       H  0.53761861  0.96155105  0.77091396     0.15700
H2515       H  0.94839392  0.48358361  0.72932375     0.15400
N2516       N  0.93752405  0.48673873  0.76886583     0.74500
O2517       O  0.56740507  0.96902908  0.72222258    -0.38900
O2518       O  0.54503388  0.92552313  0.72906361    -0.38900
O2519       O  0.92320712  0.51195985  0.76919346    -0.39600
O2520       O  0.92317523  0.46221036  0.77242169    -0.39600
C2521       C  0.78514637  0.26753966  0.92648942    -0.11900
C2522       C  0.75897412  0.25707357  0.93690186     0.05100
C2523       C  0.73383764  0.24599925  0.92528830    -0.07200
C2524       C  0.73485417  0.24671392  0.90381305    -0.08000
C2525       C  0.76088522  0.25747890  0.89338187    -0.02500
C2526       C  0.78641631  0.26770876  0.90501128     0.04300
N2527       N  0.81349358  0.27916690  0.89535487     0.66800
H2528       H  0.80481130  0.27608465  0.93509491     0.15700
H2529       H  0.71529691  0.23791801  0.89521585     0.15400
N2530       N  0.70792800  0.23217692  0.93496750     0.74500
O2531       O  0.81589983  0.30756998  0.89206517    -0.38900
O2532       O  0.83714269  0.26237363  0.89436127    -0.38900
O2533       O  0.68239174  0.24600809  0.93500572    -0.39600
O2534       O  0.70890521  0.20402257  0.93939489    -0.39600
C2535       C  0.78701342  0.36654272  0.99213691    -0.11900
C2536       C  0.76082451  0.35137862  0.99943983     0.05100
C2537       C  0.73595169  0.36907962  0.00689259    -0.07200
C2538       C  0.73744594  0.40114577  0.00646900    -0.08000
C2539       C  0.76352247  0.41632763  0.99900943    -0.02500
C2540       C  0.78860630  0.39861646  0.99184479     0.04300
N2541       N  0.81542276  0.41270361  0.98351537     0.66800
H2542       H  0.80637636  0.35339137  0.98627308     0.15700
H2543       H  0.71812228  0.41428349  0.01239960     0.15400
N2544       N  0.70959184  0.35497034  0.01581888     0.74500
O2545       O  0.83887928  0.41624467  0.99472994    -0.38900
O2546       O  0.81792100  0.41529961  0.96431949    -0.38900
O2547       O  0.70833867  0.35184969  0.03503774    -0.39600
O2548       O  0.68543145  0.35179755  0.00524481    -0.39600
C2549       C  0.78657548  0.15091015  0.99895094    -0.11900
C2550       C  0.75824916  0.16642819  0.99941130     0.05100
C2551       C  0.73087854  0.14897871  0.00008725    -0.07200
C2552       C  0.73245121  0.11689821  0.00009656    -0.08000
C2553       C  0.76082620  0.10140960  0.99956439    -0.02500
C2554       C  0.78816319  0.11890886  0.99902368     0.04300
N2555       N  0.81783576  0.10475054  0.99839034     0.66800
H2556       H  0.80798226  0.16369714  0.99844264     0.15700
H2557       H  0.71109177  0.10403180  0.00063252     0.15400
N2558       N  0.70127883  0.16326671  0.00093247     0.74500
O2559       O  0.83030618  0.09960503  0.98126668    -0.38900
O2560       O  0.83396075  0.10365869  0.01451177    -0.38900
O2561       O  0.68498421  0.16465862  0.98489797    -0.39600
O2562       O  0.68904827  0.16835121  0.01814247    -0.39600
C2563       C  0.79278825  0.51082292  0.92685689    -0.11900
C2564       C  0.76459219  0.50902758  0.93725148     0.05100
C2565       C  0.73546938  0.00891292  0.92564711    -0.07200
C2566       C  0.73740854  0.00859268  0.90426681    -0.08000
C2567       C  0.76652740  0.50949063  0.89379840    -0.02500
C2568       C  0.79402371  0.51125038  0.90539169     0.04300
N2569       N  0.82334735  0.51398955  0.89576015     0.66800
H2570       H  0.81423145  0.51212974  0.93543812     0.15700
H2571       H  0.71609581  0.00807707  0.89549837     0.15400
N2572       N  0.70563460  0.00884117  0.93478715     0.74500
O2573       O  0.83430489  0.54033195  0.89262467    -0.38900
O2574       O  0.84083415  0.49087694  0.89478324    -0.38900
O2575       O  0.69069550  0.03363775  0.93607766    -0.39600
O2576       O  0.69491060  0.48070482  0.93759303    -0.39600
C2577       C  0.96044355  0.25083340  0.92816629    -0.11900
C2578       C  0.48696473  0.24425423  0.93972855     0.05100
C2579       C  0.51441127  0.23665310  0.92921908    -0.07200
C2580       C  0.51473378  0.23578961  0.90777422    -0.08000
C2581       C  0.48823487  0.24227652  0.89620114    -0.02500
C2582       C  0.96082862  0.25008223  0.90667240     0.04300
N2583       N  0.93338244  0.25815281  0.89581637     0.66800
H2584       H  0.93915695  0.25704742  0.93586036     0.15700
H2585       H  0.53608673  0.22966156  0.90012496     0.15400
N2586       N  0.54206564  0.22897059  0.93998680     0.74500
O2587       O  0.91256294  0.23835165  0.89336110    -0.38900
O2588       O  0.92729652  0.28607993  0.89269410    -0.38900
O2589       O  0.54880055  0.20111564  0.94280434    -0.39600
O2590       O  0.56252264  0.24914251  0.94246763    -0.39600
C2591       C  0.95872418  0.38955909  0.00008221    -0.11900
C2592       C  0.48702548  0.40432431  0.00347328     0.05100
C2593       C  0.51347363  0.38617435  0.00699649    -0.07200
C2594       C  0.51138257  0.35417885  0.00630540    -0.08000
C2595       C  0.48326986  0.33935271  0.00244434    -0.02500
C2596       C  0.95655758  0.35752537  0.99960955     0.04300
N2597       N  0.92711116  0.34400790  0.99599180     0.66800
H2598       H  0.93795756  0.40294466  0.99747742     0.15700
H2599       H  0.53215476  0.34083769  0.00897407     0.15400
N2600       N  0.54253977  0.39967745  0.01179711     0.74500
O2601       O  0.91746047  0.34103278  0.97781482    -0.38900
O2602       O  0.90844113  0.34151335  0.01066678    -0.38900
O2603       O  0.55098454  0.40160471  0.03030028    -0.39600
O2604       O  0.06210045  0.40325298  0.99794804    -0.39600
C2605       C  0.51308652  0.13898970  0.00086602    -0.11900
C2606       C  0.48444540  0.15411951  0.00086351     0.05100
C2607       C  0.95742563  0.13625072  0.99981465    -0.07200
C2608       C  0.95955571  0.10426349  0.99891734    -0.08000
C2609       C  0.48814228  0.08905752  0.99905535    -0.02500
C2610       C  0.51520038  0.10692274  0.99994551     0.04300
N2611       N  0.54502979  0.09307208  0.00001603     0.66800
H2612       H  0.53426009  0.15213213  0.00155568     0.15700
H2613       H  0.93833321  0.09119816  0.99823065     0.15400
N2614       N  0.92752954  0.14996390  0.99968069     0.74500
O2615       O  0.55934494  0.08998554  0.98332820    -0.38900
O2616       O  0.55941399  0.09020493  0.01675476    -0.38900
O2617       O  0.91317211  0.15261105  0.98291516    -0.39600
O2618       O  0.91311049  0.15294347  0.01633671    -0.39600
C2619       C  0.51191011  0.47862714  0.92926495    -0.11900
C2620       C  0.48626457  0.99094254  0.93863712     0.05100
C2621       C  0.96000519  0.99689963  0.92642458    -0.07200
C2622       C  0.96219378  0.99565376  0.90499773    -0.08000
C2623       C  0.48927301  0.48905641  0.89579181    -0.02500
C2624       C  0.51339155  0.47689760  0.90787064     0.04300
N2625       N  0.03866514  0.46088747  0.89881882     0.66800
H2626       H  0.53075841  0.46913798  0.93819944     0.15700
H2627       H  0.94185486  0.00091159  0.89592343     0.15400
N2628       N  0.43103629  0.00465840  0.93534914     0.74500
O2629       O  0.56384761  0.47467991  0.89638587    -0.38900
O2630       O  0.03830376  0.43195163  0.89852770    -0.38900
O2631       O  0.42252467  0.03235673  0.93570622    -0.39600
O2632       O  0.91151426  0.98393887  0.93845352    -0.39600
C2633       C  0.73395844  0.25102838  0.57053182    -0.11900
C2634       C  0.74917267  0.27507790  0.56058379     0.05100
C2635       C  0.76167295  0.29918189  0.57247740    -0.07200
C2636       C  0.76073869  0.29746615  0.59395571    -0.08000
C2637       C  0.74697146  0.27240838  0.60382378    -0.02500
C2638       C  0.73222942  0.24980775  0.59186723     0.04300
N2639       N  0.71411496  0.22634323  0.60111559     0.66800
H2640       H  0.72286078  0.23302123  0.56161520     0.15700
H2641       H  0.77173391  0.31542695  0.60297103     0.15400
N2642       N  0.77651440  0.32475186  0.56312030     0.74500
O2643       O  0.68636460  0.23186686  0.60544262    -0.38900
O2644       O  0.72354147  0.19894339  0.60084779    -0.38900
O2645       O  0.76244070  0.35005078  0.56189151    -0.39600
O2646       O  0.80522529  0.32400783  0.56037763    -0.39600
C2647       C  0.75075787  0.45463733  0.57149923    -0.11900
C2648       C  0.74853596  0.48225785  0.56051673     0.05100
C2649       C  0.75244128  0.00676829  0.57199066    -0.07200
C2650       C  0.75190548  0.00712143  0.59343960    -0.08000
C2651       C  0.74797987  0.48209266  0.60415103    -0.02500
C2652       C  0.75058048  0.45426865  0.59302425     0.04300
N2653       N  0.75345909  0.42542197  0.60319607     0.66800
H2654       H  0.75274060  0.43295721  0.56333959     0.15700
H2655       H  0.75389250  0.02911442  0.60122769     0.15400
N2656       N  0.75576238  0.03535577  0.56156505     0.74500
O2657       O  0.72984278  0.40911821  0.60571265    -0.38900
O2658       O  0.77973845  0.41338220  0.60515062    -0.38900
O2659       O  0.73260052  0.05256110  0.55933047    -0.39600
O2660       O  0.78232109  0.04622913  0.55892000    -0.39600
C2661       C  0.85913617  0.29729597  0.49967426    -0.11900
C2662       C  0.84402536  0.26891019  0.49834143     0.05100
C2663       C  0.86193778  0.24186266  0.49716015    -0.07200
C2664       C  0.89402494  0.24365692  0.49826970    -0.08000
C2665       C  0.90911800  0.27201719  0.50007454    -0.02500
C2666       C  0.89121248  0.29915094  0.50034026     0.04300
N2667       N  0.90502328  0.32884918  0.50107860     0.66800
H2668       H  0.84596043  0.31851015  0.50029178     0.15700
H2669       H  0.90723069  0.22247845  0.49743702     0.15400
N2670       N  0.84814405  0.21247208  0.49413091     0.74500
O2671       O  0.90874725  0.34200670  0.51817557    -0.38900
O2672       O  0.90712630  0.34429556  0.48480515    -0.38900
O2673       O  0.84491161  0.20222180  0.47612460    -0.39600
O2674       O  0.84566898  0.19440956  0.50911487    -0.39600
C2675       C  0.64274628  0.29391597  0.49066375    -0.11900
C2676       C  0.65889197  0.27052708  0.50088608     0.05100
C2677       C  0.64227296  0.24809717  0.51175572    -0.07200
C2678       C  0.61014321  0.24890313  0.51174944    -0.08000
C2679       C  0.59404506  0.27201049  0.50133810    -0.02500
C2680       C  0.61056026  0.29468987  0.49065236     0.04300
N2681       N  0.59493784  0.31765741  0.47890849     0.66800
H2682       H  0.65520315  0.31126081  0.48209180     0.15700
H2683       H  0.59765770  0.23164950  0.52039096     0.15400
N2684       N  0.65766140  0.22546655  0.52386483     0.74500
O2685       O  0.59388099  0.34498343  0.48532730    -0.38900
O2686       O  0.58049336  0.31026942  0.46280613    -0.38900
O2687       O  0.66362984  0.23116761  0.54244883    -0.39600
O2688       O  0.65951297  0.19823009  0.51736290    -0.39600
C2689       C  0.01343454  0.24642802  0.59609775    -0.11900
C2690       C  0.50326964  0.27196904  0.60741706     0.05100
C2691       C  0.49311208  0.29820866  0.59664375    -0.07200
C2692       C  0.49333619  0.29834850  0.57507404    -0.08000
C2693       C  0.50310433  0.27247787  0.56388788    -0.02500
C2694       C  0.01337642  0.24637760  0.57469474     0.04300
N2695       N  0.02442920  0.21960756  0.56431067     0.66800
H2696       H  0.02156548  0.22608648  0.60389722     0.15700
H2697       H  0.48516261  0.31850250  0.56708460     0.15400
N2698       N  0.48142853  0.32444322  0.60724916     0.74500
O2699       O  0.00672850  0.19699073  0.56181662    -0.38900
O2700       O  0.05296933  0.21616038  0.56164472    -0.38900
O2701       O  0.49874647  0.34716318  0.61035082    -0.39600
O2702       O  0.45281683  0.32723478  0.60990281    -0.39600
C2703       C  0.85468726  0.00344318  0.50398965    -0.11900
C2704       C  0.83965185  0.48090405  0.49800105     0.05100
C2705       C  0.85791625  0.45432867  0.49539885    -0.07200
C2706       C  0.88995919  0.45665667  0.49600284    -0.08000
C2707       C  0.90456663  0.48499221  0.49929353    -0.02500
C2708       C  0.88674021  0.00537148  0.50470292     0.04300
N2709       N  0.89968102  0.54080263  0.50607715     0.66800
H2710       H  0.84128476  0.02347888  0.50841622     0.15700
H2711       H  0.90349882  0.43590179  0.49384093     0.15400
N2712       N  0.84414823  0.92217443  0.48634949     0.74500
O2713       O  0.90449283  0.05496762  0.49925129    -0.38900
O2714       O  0.90206944  0.55001435  0.52438625    -0.38900
O2715       O  0.84180265  0.91643433  0.46742131    -0.39600
O2716       O  0.84077721  0.40702851  0.50703994    -0.39600
C2717       C  0.60451122  0.45692825  0.50120475    -0.11900
C2718       C  0.58961303  0.48556960  0.50037274     0.05100
C2719       C  0.60775114  0.00566762  0.50411145    -0.07200
C2720       C  0.63981257  0.00353989  0.50408063    -0.08000
C2721       C  0.65461233  0.48140334  0.50005840    -0.02500
C2722       C  0.63655481  0.45457795  0.50112781     0.04300
N2723       N  0.65018730  0.42475412  0.50228465     0.66800
H2724       H  0.59119821  0.43588772  0.50197789     0.15700
H2725       H  0.65303892  0.02420975  0.50706619     0.15400
N2726       N  0.59391547  0.03473271  0.50844120     0.74500
O2727       O  0.65508259  0.41285774  0.51961945    -0.38900
O2728       O  0.65126958  0.40813011  0.48641541    -0.38900
O2729       O  0.59078121  0.04324196  0.52683943    -0.39600
O2730       O  0.59071579  0.05405499  0.49421537    -0.39600
C2731       C  0.99469007  0.45828323  0.57199756    -0.11900
C2732       C  0.49678617  0.48683443  0.56202038     0.05100
C2733       C  0.49299528  0.00785047  0.57317143    -0.07200
C2734       C  0.49344231  0.00664709  0.59457983    -0.08000
C2735       C  0.49727940  0.48319932  0.60544843    -0.02500
C2736       C  0.99488761  0.45622038  0.59337092     0.04300
N2737       N  0.99283252  0.42654574  0.60245554     0.66800
H2738       H  0.99305788  0.43717038  0.56316214     0.15700
H2739       H  0.49015694  0.02787649  0.60308773     0.15400
N2740       N  0.48762740  0.03682314  0.56357585     0.74500
O2741       O  0.96681457  0.41424646  0.60467123    -0.38900
O2742       O  0.01684385  0.41046736  0.60436769    -0.38900
O2743       O  0.46047137  0.04686641  0.56197191    -0.39600
O2744       O  0.50991153  0.05471853  0.56055895    -0.39600
C2745       C  0.75832811  0.23490448  0.40525900    -0.11900
C2746       C  0.74910883  0.26079114  0.39401401     0.05100
C2747       C  0.73899823  0.28713564  0.40473368    -0.07200
C2748       C  0.73953254  0.28754298  0.42617118    -0.08000
C2749       C  0.74944353  0.26194968  0.43743915    -0.02500
C2750       C  0.75845548  0.23514302  0.42672870     0.04300
N2751       N  0.76870644  0.20828168  0.43728246     0.66800
H2752       H  0.76606419  0.21431900  0.39733128     0.15700
H2753       H  0.73174743  0.30813176  0.43406967     0.15400
N2754       N  0.72697948  0.31325929  0.39418812     0.74500
O2755       O  0.74971629  0.18721163  0.44104574    -0.38900
O2756       O  0.79714519  0.20262467  0.43842834    -0.38900
O2757       O  0.69825462  0.31593875  0.39190981    -0.39600
O2758       O  0.74393669  0.33633371  0.39150411    -0.39600
C2759       C  0.74058044  0.00342639  0.42759451    -0.11900
C2760       C  0.74483629  0.48003872  0.43655891     0.07500
C2761       C  0.74561439  0.45320471  0.42432388    -0.07200
C2762       C  0.74579233  0.45556584  0.40289735    -0.08000
C2763       C  0.74497997  0.48422394  0.39308938    -0.02500
C2764       C  0.73984576  0.00617037  0.40626260     0.04300
N2765       N  0.73581489  0.03604747  0.39766967     0.66800
H2766       H  0.73876453  0.02426663  0.43669246     0.15700
H2767       H  0.74674465  0.43458804  0.39388293     0.15400
N2768       N  0.74634138  0.42333561  0.43325534     0.74500
O2769       O  0.70896481  0.04653695  0.39522232    -0.38900
O2770       O  0.75844236  0.05406400  0.39684222    -0.38900
O2771       O  0.72181849  0.40799061  0.43420681    -0.39600
O2772       O  0.77184878  0.40987528  0.43557679    -0.39600
C2773       C  0.49549426  0.24128794  0.40829211    -0.11900
C2774       C  0.50697786  0.26601478  0.39693255     0.05100
C2775       C  0.01843000  0.29168084  0.40755522    -0.07200
C2776       C  0.01587252  0.29356115  0.42897109    -0.08000
C2777       C  0.50254802  0.26958497  0.44024133    -0.02500
C2778       C  0.49285781  0.24296122  0.42963743     0.04300
N2779       N  0.47920819  0.21778687  0.44024651     0.66800
H2780       H  0.48753227  0.22075121  0.40051113     0.15700
H2781       H  0.02519431  0.31341735  0.43688138     0.15400
N2782       N  0.03380830  0.31576795  0.39694080     0.74500
O2783       O  0.45305489  0.22081458  0.44837066    -0.38900
O2784       O  0.49392995  0.19300200  0.44238049    -0.38900
O2785       O  0.01941911  0.34013917  0.39275633    -0.39600
O2786       O  0.06273707  0.31514361  0.39543432    -0.39600
C2787       C  0.89669089  0.28523683  0.33465534    -0.11900
C2788       C  0.91251230  0.25736860  0.33715268     0.05100
C2789       C  0.89530230  0.23011278  0.33944270    -0.07200
C2790       C  0.86316816  0.23129955  0.33896038    -0.08000
C2791       C  0.84737026  0.25911895  0.33610903    -0.02500
C2792       C  0.86459194  0.28639988  0.33405005     0.04300
N2793       N  0.85007543  0.31546210  0.33087942     0.66800
H2794       H  0.90932573  0.30653268  0.33280826     0.15700
H2795       H  0.85050417  0.20999022  0.34066523     0.15400
N2796       N  0.90987423  0.20097808  0.34219391     0.74500
O2797       O  0.84563879  0.33305240  0.34600244    -0.38900
O2798       O  0.84804874  0.32606865  0.31293433    -0.38900
O2799       O  0.91178979  0.18974489  0.35997125    -0.39600
O2800       O  0.91410603  0.18382507  0.32682087    -0.39600
C2801       C  0.61263073  0.23150190  0.33033446    -0.11900
C2802       C  0.59740671  0.25992189  0.33165001     0.05100
C2803       C  0.61505185  0.28705957  0.33148644    -0.07200
C2804       C  0.64709325  0.28520354  0.33048692    -0.08000
C2805       C  0.66238560  0.25675286  0.32968670    -0.02500
C2806       C  0.64467801  0.22963599  0.32937088     0.04300
N2807       N  0.65865420  0.19996746  0.32831275     0.66800
H2808       H  0.59958612  0.21027930  0.33017201     0.15700
H2809       H  0.66009428  0.30644839  0.33071440     0.15400
N2810       N  0.60105603  0.31669804  0.33286562     0.74500
O2811       O  0.66302324  0.18506240  0.34463363    -0.38900
O2812       O  0.65981720  0.18614673  0.31129059    -0.38900
O2813       O  0.59985980  0.33013049  0.35002496    -0.39600
O2814       O  0.59632252  0.33187345  0.31670139    -0.39600
C2815       C  0.00440773  0.00624950  0.40539488    -0.11900
C2816       C  0.49553545  0.48100589  0.39493579     0.05100
C2817       C  0.49665345  0.45389078  0.40675514    -0.07200
C2818       C  0.49701503  0.45584461  0.42821897    -0.08000
C2819       C  0.49596255  0.48436925  0.43837569    -0.02500
C2820       C  0.00500325  0.00702022  0.42677927     0.04300
N2821       N  0.01484294  0.03457412  0.43671148     0.66800
H2822       H  0.01194016  0.02645426  0.39712856     0.15700
H2823       H  0.49811791  0.43471163  0.43697632     0.15400
N2824       N  0.49730655  0.42422824  0.39736120     0.74500
O2825       O  0.04321760  0.03964643  0.43895510    -0.38900
O2826       O  0.99585843  0.05620188  0.43925827    -0.38900
O2827       O  0.52260976  0.41020456  0.39568141    -0.39600
O2828       O  0.47249784  0.40965073  0.39498116    -0.39600
C2829       C  0.88739778  0.00992326  0.32478138    -0.11900
C2830       C  0.90460674  0.48246641  0.33175275     0.05100
C2831       C  0.88666093  0.45609284  0.33539048    -0.07200
C2832       C  0.85458469  0.45837101  0.33527001    -0.08000
C2833       C  0.83960622  0.48646517  0.33157833    -0.02500
C2834       C  0.85523395  0.01111897  0.32471564     0.04300
N2835       N  0.84030282  0.03715596  0.31583463     0.66800
H2836       H  0.90010538  0.02927505  0.31868589     0.15700
H2837       H  0.84130799  0.43779998  0.33830078     0.15400
N2838       N  0.90039226  0.42697415  0.33969512     0.74500
O2839       O  0.83672593  0.06117054  0.32643188    -0.38900
O2840       O  0.83692723  0.03841941  0.29661780    -0.38900
O2841       O  0.90275458  0.41827343  0.35807979    -0.39600
O2842       O  0.90292746  0.40746702  0.32544681    -0.39600
C2843       C  0.63762923  0.01063230  0.32730464    -0.11900
C2844       C  0.65462000  0.48520824  0.33144981     0.05100
C2845       C  0.63812887  0.45812478  0.33588062    -0.07200
C2846       C  0.60604661  0.45878230  0.33647528    -0.08000
C2847       C  0.58964009  0.48598966  0.33290465    -0.02500
C2848       C  0.60555254  0.01234220  0.32816895     0.04300
N2849       N  0.59107472  0.04119569  0.32411413     0.66800
H2850       H  0.65037962  0.03139428  0.32385853     0.15700
H2851       H  0.59389586  0.43770729  0.34003741     0.15400
N2852       N  0.65347616  0.42991535  0.34045160     0.74500
O2853       O  0.58558034  0.05917002  0.33887046    -0.38900
O2854       O  0.59150913  0.05175888  0.30612559    -0.38900
O2855       O  0.65800325  0.42256192  0.35892747    -0.39600
O2856       O  0.65637955  0.40986118  0.32658106    -0.39600
C2857       C  0.78653375  0.25398088  0.09386193    -0.11900
C2858       C  0.75830228  0.25483475  0.10424730     0.05100
C2859       C  0.73093155  0.25788089  0.09259550    -0.07200
C2860       C  0.73233035  0.25939418  0.07119498    -0.08000
C2861       C  0.76051761  0.25823100  0.06077988    -0.02500
C2862       C  0.78795269  0.25578607  0.07244743     0.04300
N2863       N  0.81751897  0.25522389  0.06294693     0.66800
H2864       H  0.80794657  0.25195076  0.10242693     0.15700
H2865       H  0.71089910  0.26155033  0.06266799     0.15400
N2866       N  0.70146205  0.26003397  0.10213386     0.74500
O2867       O  0.83219395  0.27996872  0.06096057    -0.38900
O2868       O  0.83154101  0.22999950  0.06098808    -0.38900
O2869       O  0.68927766  0.28608152  0.10466451    -0.39600
O2870       O  0.68507251  0.23630729  0.10363778    -0.39600
C2871       C  0.78237941  0.23972534  0.23864934    -0.11900
C2872       C  0.75756189  0.25268482  0.22783541     0.05100
C2873       C  0.73310913  0.26617413  0.23895863    -0.07200
C2874       C  0.73420534  0.26689496  0.26037622    -0.08000
C2875       C  0.75884608  0.25375906  0.27107179    -0.02500
C2876       C  0.78301358  0.23980944  0.26012447     0.04300
N2877       N  0.80881542  0.22669153  0.27056301     0.66800
H2878       H  0.80135786  0.22916912  0.23037282     0.15700
H2879       H  0.71543113  0.27764079  0.26877356     0.15400
N2880       N  0.70744778  0.28006201  0.22880699     0.74500
O2881       O  0.80922930  0.19826612  0.27415322    -0.38900
O2882       O  0.83339468  0.24186824  0.27212557    -0.38900
O2883       O  0.68200803  0.26619761  0.22831306    -0.39600
O2884       O  0.70831511  0.30825649  0.22452682    -0.39600
C2885       C  0.78779136  0.00081629  0.07193081    -0.11900
C2886       C  0.76251466  0.51025614  0.06078230     0.05100
C2887       C  0.73546759  0.51771109  0.07172724    -0.07200
C2888       C  0.73503156  0.51521441  0.09306456    -0.08000
C2889       C  0.76132732  0.50634904  0.10409576    -0.02500
C2890       C  0.78843741  0.99901106  0.09336647     0.04300
N2891       N  0.81659055  0.99039719  0.10319322     0.66800
H2892       H  0.80868071  0.99547237  0.06351163     0.15700
H2893       H  0.71389358  0.52090213  0.10109207     0.15400
N2894       N  0.70856552  0.52906491  0.06158085     0.74500
O2895       O  0.82299723  0.96232171  0.10527234    -0.38900
O2896       O  0.83758551  0.01008779  0.10537592    -0.38900
O2897       O  0.68528331  0.51202405  0.05981792    -0.39600
O2898       O  0.70575317  0.55754555  0.05865380    -0.39600
C2899       C  0.78182777  0.39417476  0.16894442    -0.11900
C2900       C  0.75398435  0.40952994  0.16508292     0.05100
C2901       C  0.72702025  0.39192799  0.16212168    -0.07200
C2902       C  0.72856992  0.35985110  0.16284972    -0.08000
C2903       C  0.75652509  0.34453825  0.16650164    -0.02500
C2904       C  0.78337122  0.36218995  0.16972464     0.04300
N2905       N  0.81243524  0.34819374  0.17405634     0.66800
H2906       H  0.80283196  0.40708380  0.17153210     0.15700
H2907       H  0.70760340  0.34684630  0.16032980     0.15400
N2908       N  0.69792707  0.40604238  0.15807567     0.74500
O2909       O  0.83112037  0.34344197  0.15961541    -0.38900
O2910       O  0.82179610  0.34670002  0.19237550    -0.38900
O2911       O  0.68815410  0.40746471  0.13984983    -0.39600
O2912       O  0.67950110  0.41064143  0.17268648    -0.39600
C2913       C  0.78657663  0.11004096  0.16334991    -0.11900
C2914       C  0.75923311  0.09447862  0.16791885     0.05100
C2915       C  0.73251741  0.11186321  0.17227643    -0.07200
C2916       C  0.73341655  0.14387580  0.17141996    -0.08000
C2917       C  0.76056278  0.15950175  0.16651164    -0.02500
C2918       C  0.78754205  0.14215995  0.16265243     0.04300
N2919       N  0.81601176  0.15659184  0.15766458     0.66800
H2920       H  0.80741590  0.09718859  0.15998802     0.15700
H2921       H  0.71254700  0.15660548  0.17488479     0.15400
N2922       N  0.70444665  0.09756013  0.17829292     0.74500
O2923       O  0.83565972  0.16119562  0.17163235    -0.38900
O2924       O  0.82409817  0.15833381  0.13913502    -0.38900
O2925       O  0.69749115  0.09679117  0.19705310    -0.39600
O2926       O  0.68388353  0.09255587  0.16499515    -0.39600
C2927       C  0.76313372  0.47160139  0.23604516    -0.11900
C2928       C  0.74930591  0.49705151  0.22671593     0.05100
C2929       C  0.73901837  0.01956805  0.23977217    -0.07200
C2930       C  0.73715556  0.01562211  0.26097405    -0.08000
C2931       C  0.74800629  0.49049504  0.26965153    -0.02500
C2932       C  0.76239552  0.46796279  0.25733794     0.04300
N2933       N  0.77743618  0.44197452  0.26618952     0.66800
H2934       H  0.77458824  0.45434941  0.22668768     0.15700
H2935       H  0.72510155  0.03280852  0.27002584     0.15400
N2936       N  0.72622927  0.04658543  0.23077524     0.74500
O2937       O  0.76369922  0.41652099  0.26657016    -0.38900
O2938       O  0.80610136  0.44277573  0.26926296    -0.38900
O2939       O  0.69741054  0.04920069  0.22918418    -0.39600
O2940       O  0.74293268  0.07000766  0.22874882    -0.39600
C2941       C  0.95965296  0.25859369  0.09696103    -0.11900
C2942       C  0.48651125  0.24819758  0.10688663     0.05100
C2943       C  0.51132553  0.23770934  0.09481116    -0.07200
C2944       C  0.50879805  0.23752060  0.07345064    -0.08000
C2945       C  0.48209692  0.24796807  0.06345955    -0.02500
C2946       C  0.95734535  0.25889448  0.07547179     0.04300
N2947       N  0.93053324  0.27195014  0.06618498     0.66800
H2948       H  0.94048779  0.26733076  0.10593103     0.15700
H2949       H  0.52814502  0.22895223  0.06458244     0.15400
N2950       N  0.53914283  0.22660356  0.10390909     0.74500
O2951       O  0.90646127  0.25602322  0.06450019    -0.38900
O2952       O  0.92885539  0.30065946  0.06395236    -0.38900
O2953       O  0.04287999  0.19797340  0.10608893    -0.39600
O2954       O  0.56198322  0.24428170  0.10543250    -0.39600
C2955       C  0.97672049  0.27005994  0.26385058    -0.11900
C2956       C  0.49991837  0.25317573  0.27370673     0.05100
C2957       C  0.52049493  0.23550642  0.26186649    -0.07200
C2958       C  0.51774113  0.23525383  0.24044182    -0.08000
C2959       C  0.49447298  0.25202819  0.23049381    -0.02500
C2960       C  0.97362881  0.26946212  0.24246304     0.04300
N2961       N  0.95015243  0.28773131  0.23310078     0.66800
H2962       H  0.96077356  0.28385211  0.27284365     0.15700
H2963       H  0.53406551  0.22187513  0.23148442     0.15400
N2964       N  0.54534760  0.21919038  0.27126275     0.74500
O2965       O  0.92298451  0.27768015  0.23222369    -0.38900
O2966       O  0.95503495  0.31584216  0.22993408    -0.38900
O2967       O  0.54461321  0.19027717  0.27198248    -0.39600
O2968       O  0.57032067  0.23293571  0.27483535    -0.39600
C2969       C  0.51788751  0.50360711  0.09555743    -0.11900
C2970       C  0.48851900  0.00064599  0.10562867     0.05100
C2971       C  0.96089659  0.99706555  0.09432788    -0.07200
C2972       C  0.96163097  0.99713658  0.07289340    -0.08000
C2973       C  0.48939689  0.00060625  0.06217624    -0.02500
C2974       C  0.51898224  0.50296613  0.07413115     0.04300
N2975       N  0.54841074  0.50290182  0.06442878     0.66800
H2976       H  0.53949837  0.50388092  0.10400000     0.15700
H2977       H  0.94017364  0.99387817  0.06457485     0.15400
N2978       N  0.93202354  0.99244164  0.10423645     0.74500
O2979       O  0.56167689  0.52807226  0.06099562    -0.38900
O2980       O  0.56368848  0.47827514  0.06351480    -0.38900
O2981       O  0.91324091  0.01447026  0.10563203    -0.39600
O2982       O  0.92290842  0.96547860  0.10763626    -0.39600
C2983       C  0.51803133  0.39138301  0.16248809    -0.11900
C2984       C  0.99043379  0.40731524  0.16625714     0.05100
C2985       C  0.96366874  0.39031311  0.17082395    -0.07200
C2986       C  0.96493609  0.35829459  0.17124184    -0.08000
C2987       C  0.99235585  0.34235768  0.16719572    -0.02500
C2988       C  0.51926440  0.35931856  0.16288546     0.04300
N2989       N  0.54788647  0.34453409  0.15850209     0.66800
H2990       H  0.53894100  0.40390522  0.15899804     0.15700
H2991       H  0.94408471  0.34581923  0.17494944     0.15400
N2992       N  0.93511568  0.40497425  0.17558893     0.74500
O2993       O  0.55490398  0.33878711  0.14011772    -0.38900
O2994       O  0.56846671  0.34343272  0.17218842    -0.38900
O2995       O  0.91536456  0.40855847  0.16156488    -0.39600
O2996       O  0.92666550  0.40658337  0.19404789    -0.39600
C2997       C  0.51722691  0.14194209  0.16611420    -0.11900
C2998       C  0.98924843  0.15746050  0.16946279     0.05100
C2999       C  0.96227153  0.13996048  0.17223367    -0.07200
C3000       C  0.96380056  0.10789181  0.17168011    -0.08000
C3001       C  0.99174354  0.09238737  0.16837136    -0.02500
C3002       C  0.51876265  0.10990417  0.16547014     0.04300
N3003       N  0.54786865  0.09579004  0.16150984     0.66800
H3004       H  0.53829920  0.15477323  0.16375544     0.15700
H3005       H  0.94272610  0.09504242  0.17396344     0.15400
N3006       N  0.93311280  0.15417099  0.17578488     0.74500
O3007       O  0.55614691  0.09147905  0.14318793    -0.38900
O3008       O  0.56770915  0.09450916  0.17566660    -0.38900
O3009       O  0.91385073  0.15581846  0.16129525    -0.39600
O3010       O  0.92420794  0.15844403  0.19397566    -0.39600
C3011       C  0.51448982  0.01411893  0.23975579    -0.11900
C3012       C  0.49532128  0.49210969  0.22889626     0.05100
C3013       C  0.97869466  0.46904601  0.23922721    -0.07200
C3014       C  0.98077111  0.46678184  0.26055853    -0.08000
C3015       C  0.49887734  0.48749309  0.27182252    -0.02500
C3016       C  0.51587992  0.01258931  0.26116000     0.04300
N3017       N  0.53767928  0.03126922  0.27178657     0.66800
H3018       H  0.52931221  0.03010923  0.23173525     0.15700
H3019       H  0.96762719  0.44919621  0.26839432     0.15400
N3020       N  0.96068438  0.44711963  0.22824516     0.74500
O3021       O  0.56561556  0.02334779  0.27171452    -0.38900
O3022       O  0.53072550  0.05867466  0.27607041    -0.38900
O3023       O  0.97175747  0.42076282  0.22497057    -0.39600
O3024       O  0.93202550  0.45122175  0.22673047    -0.39600
O3025       O  0.51755234  0.54288810  0.16816317    -0.71400
O3026       O  0.51566192  0.95607720  0.16704877    -0.71600
O3027       O  0.51548102  0.50048988  0.13835789    -0.71500
O3028       O  0.51750608  0.99966914  0.19599762    -0.71500
O3029       O  0.96830510  0.49606607  0.19724561    -0.71500
O3030       O  0.96478625  0.00151028  0.13879991    -0.71500
O3031       O  0.96568645  0.95659663  0.16687982    -0.71400
O3032       O  0.96782546  0.54350834  0.17061836    -0.71600
V3033       V  0.51588101  0.49930177  0.16735265     1.35200
V3034       V  0.96714310  0.00004906  0.16783052     1.35200
C3035       C  0.99289128  0.55816370  0.16975106     0.77800
C3036       C  0.99049295  0.94142758  0.16708349     0.77900
C3037       C  0.49018935  0.50258796  0.12883394     0.77700
C3038       C  0.49296481  0.99800546  0.20625399     0.77700
O3039       O  0.96792003  0.75377211  0.19865309    -0.71400
O3040       O  0.96469440  0.74812937  0.14048606    -0.71600
O3041       O  0.96560552  0.70706513  0.17132560    -0.71500
O3042       O  0.96729654  0.79406185  0.16791397    -0.71500
O3043       O  0.51721573  0.79304123  0.16799617    -0.71500
O3044       O  0.51532085  0.70610590  0.16892972    -0.71500
O3045       O  0.51452261  0.74879730  0.13926290    -0.71400
O3046       O  0.51776698  0.75044431  0.19759734    -0.71600
V3047       V  0.96733027  0.75066592  0.16955811     1.35200
V3048       V  0.51524813  0.74957157  0.16846660     1.35200
C3049       C  0.49342182  0.75318096  0.20804215     0.77800
C3050       C  0.48901326  0.74821551  0.12984543     0.77900
C3051       C  0.99028236  0.69163213  0.17049343     0.77700
C3052       C  0.99251971  0.80847394  0.16774112     0.77700
O3053       O  0.78135732  0.99949753  0.19616880    -0.71400
O3054       O  0.78300506  0.50346197  0.13783864    -0.71600
O3055       O  0.78013937  0.54517593  0.16806309    -0.71500
O3056       O  0.78189619  0.95787929  0.16605502    -0.71500
O3057       O  0.73204116  0.95908516  0.16553102    -0.71500
O3058       O  0.73041980  0.54586683  0.16509356    -0.71500
O3059       O  0.73490549  0.00302519  0.13673638    -0.71400
O3060       O  0.72702400  0.50182622  0.19350328    -0.71600
V3061       V  0.78197667  0.00141379  0.16713356     1.35200
V3062       V  0.73403990  0.00258095  0.16584673     1.35200
C3063       C  0.75587109  0.00031446  0.20537196     0.77800
C3064       C  0.76043259  0.00345286  0.12745277     0.77900
C3065       C  0.75535685  0.56041843  0.16687781     0.77700
C3066       C  0.75660586  0.94353289  0.16576422     0.77700
O3067       O  0.73262469  0.70830616  0.16578897    -0.71400
O3068       O  0.73257878  0.79552080  0.16500603    -0.71600
O3069       O  0.73335385  0.75127796  0.13635294    -0.71500
O3070       O  0.73113899  0.75283675  0.19439338    -0.71500
O3071       O  0.78102088  0.75097822  0.19550148    -0.71500
O3072       O  0.78317918  0.75254048  0.13713732    -0.71500
O3073       O  0.78236434  0.79513609  0.16693219    -0.71400
O3074       O  0.78250641  0.70829556  0.16570915    -0.71600
V3075       V  0.73338443  0.75191859  0.16539560     1.35200
V3076       V  0.78131497  0.75172391  0.16630187     1.35200
C3077       C  0.75767655  0.69337216  0.16574633     0.77800
C3078       C  0.75759801  0.81027427  0.16601139     0.77900
C3079       C  0.75848645  0.75218910  0.12674504     0.77700
C3080       C  0.75559100  0.75228738  0.20488825     0.77700
O3081       O  0.54004733  0.50940941  0.33488936    -0.71400
O3082       O  0.95317860  0.50723183  0.33257877    -0.71600
O3083       O  0.49498997  0.50637687  0.36272454    -0.71500
O3084       O  0.99840336  0.51003253  0.30488409    -0.71500
O3085       O  0.49596557  0.96341521  0.30286389    -0.71500
O3086       O  0.99578423  0.95731315  0.36105011    -0.71500
O3087       O  0.95242702  0.95959258  0.33187367    -0.71400
O3088       O  0.53956468  0.96089158  0.33195711    -0.71600
V3089       V  0.49666766  0.50724469  0.33380560     1.35200
V3090       V  0.99597481  0.96115640  0.33196591     1.35200
C3091       C  0.55426047  0.98582485  0.33332121     0.77800
C3092       C  0.93720378  0.98429007  0.33233909     0.77900
C3093       C  0.49444230  0.98143739  0.37195788     0.77700
C3094       C  0.49712940  0.98930701  0.29418035     0.77700
O3095       O  0.54492084  0.78958922  0.33303680    -0.71400
O3096       O  0.95802687  0.78760002  0.33614832    -0.71600
O3097       O  0.50390751  0.79080655  0.36377828    -0.71500
O3098       O  0.99883528  0.78637885  0.30560162    -0.71500
O3099       O  0.50325074  0.73644276  0.30719923    -0.71500
O3100       O  0.00285277  0.74151727  0.36550149    -0.71500
O3101       O  0.95925608  0.73786353  0.33615871    -0.71400
O3102       O  0.54638584  0.74011564  0.33634637    -0.71600
V3103       V  0.50144900  0.78746812  0.33471468     1.35200
V3104       V  0.00288915  0.74008584  0.33631138     1.35200
C3105       C  0.56055490  0.76517995  0.33416541     0.77800
C3106       C  0.94369197  0.76240060  0.33612786     0.77900
C3107       C  0.50383521  0.76682564  0.37465457     0.77700
C3108       C  0.50073406  0.76046722  0.29649474     0.77700
O3109       O  0.74900743  0.96186943  0.30201267    -0.71400
O3110       O  0.74430907  0.95747326  0.36015117    -0.71600
O3111       O  0.70290467  0.95866039  0.32961306    -0.71500
O3112       O  0.78999139  0.96068572  0.33254707    -0.71500
O3113       O  0.79049059  0.51207217  0.33170220    -0.71500
O3114       O  0.70304440  0.51102681  0.33183874    -0.71500
O3115       O  0.74678706  0.51055269  0.36085815    -0.71400
O3116       O  0.74644643  0.51303129  0.30281682    -0.71600
V3117       V  0.74650456  0.96060872  0.33111898     1.35200
V3118       V  0.74672919  0.51073677  0.33177691     1.35200
C3119       C  0.74841945  0.98756257  0.29307322     0.77800
C3120       C  0.74380732  0.98158584  0.37101688     0.77900
C3121       C  0.68738765  0.98315608  0.33089972     0.77700
C3122       C  0.80430376  0.98589751  0.33271332     0.77700
O3123       O  0.75185141  0.78471454  0.30172032    -0.71400
O3124       O  0.75134610  0.79235995  0.35984355    -0.71600
O3125       O  0.79527171  0.78908679  0.33102279    -0.71500
O3126       O  0.70816202  0.78795266  0.33046563    -0.71500
O3127       O  0.70884916  0.73825010  0.33175972    -0.71500
O3128       O  0.79585091  0.73972970  0.33504993    -0.71500
O3129       O  0.75014687  0.74276673  0.36229934    -0.71400
O3130       O  0.75509881  0.73511026  0.30446363    -0.71600
V3131       V  0.75167712  0.78759442  0.33079244     1.35200
V3132       V  0.75241769  0.73992377  0.33335188     1.35200
C3133       C  0.75403364  0.75865621  0.29325967     0.77800
C3134       C  0.75057743  0.76873206  0.37103016     0.77900
C3135       C  0.81049889  0.76459057  0.33333059     0.77700
C3136       C  0.69356095  0.76292316  0.33087210     0.77700
O3137       O  0.49670036  0.95569904  0.47055614    -0.71400
O3138       O  0.99759071  0.95558767  0.52884723    -0.71600
O3139       O  0.95379449  0.95548191  0.49983080    -0.71500
O3140       O  0.54069105  0.95538428  0.49958951    -0.71500
O3141       O  0.54058690  0.51127398  0.50010275    -0.71500
O3142       O  0.95321017  0.51094704  0.49979517    -0.71500
O3143       O  0.49687701  0.51189741  0.52917818    -0.71400
O3144       O  0.99700502  0.51052731  0.47093368    -0.71600
V3145       V  0.49722616  0.95655851  0.49971125     1.35200
V3146       V  0.49687616  0.51020909  0.50002332     1.35200
C3147       C  0.49688637  0.98071319  0.46075835     0.77800
C3148       C  0.49721018  0.98065763  0.53883565     0.77900
C3149       C  0.93875060  0.98029946  0.49970050     0.77700
C3150       C  0.55575938  0.98011018  0.50003601     0.77700
O3151       O  0.95723940  0.80015836  0.50283701    -0.71400
O3152       O  0.54422832  0.80058616  0.50197451    -0.71600
O3153       O  0.00030156  0.79859593  0.47313727    -0.71500
O3154       O  0.50133033  0.80157143  0.53163933    -0.71500
O3155       O  0.00333441  0.75189252  0.53230109    -0.71500
O3156       O  0.49977783  0.74869565  0.47449784    -0.71500
O3157       O  0.54492452  0.75086862  0.50225613    -0.71400
O3158       O  0.95775248  0.75042084  0.50443991    -0.71600
V3159       V  0.00077456  0.79937144  0.50242951     1.35200
V3160       V  0.50137274  0.75138706  0.50339597     1.35200
C3161       C  0.94260840  0.77524819  0.50387494     0.77800
C3162       C  0.55950477  0.77592498  0.50164744     0.77900
C3163       C  0.50014090  0.77275335  0.46381108     0.77700
C3164       C  0.50300767  0.77699259  0.54189099     0.77700
O3165       O  0.74613963  0.50440036  0.46932368    -0.71400
O3166       O  0.74801048  0.50591289  0.52736825    -0.71600
O3167       O  0.79052436  0.50496012  0.49783339    -0.71500
O3168       O  0.70370305  0.50525879  0.49887662    -0.71500
O3169       O  0.70393190  0.95016650  0.50029388    -0.71500
O3170       O  0.79119830  0.95049389  0.49862187    -0.71500
O3171       O  0.74900563  0.95175201  0.52879481    -0.71400
O3172       O  0.74601832  0.94932774  0.47017854    -0.71600
V3173       V  0.74711439  0.50411217  0.49833525     1.35200
V3174       V  0.74755614  0.95132956  0.49948091     1.35200
C3175       C  0.74511673  0.97405968  0.46003248     0.77800
C3176       C  0.74928509  0.97718427  0.53832901     0.77900
C3177       C  0.80585426  0.97547459  0.49813559     0.77700
C3178       C  0.68890093  0.97502233  0.50013107     0.77700
O3179       O  0.75183071  0.79760871  0.46963121    -0.71400
O3180       O  0.75093550  0.79976945  0.52803196    -0.71600
O3181       O  0.79499101  0.79852531  0.49930476    -0.71500
O3182       O  0.70769997  0.79886677  0.49841384    -0.71500
O3183       O  0.70778951  0.74914362  0.49869929    -0.71500
O3184       O  0.79491451  0.74874425  0.50009830    -0.71500
O3185       O  0.75027674  0.74998255  0.52835794    -0.71400
O3186       O  0.75231767  0.74788076  0.47038192    -0.71600
V3187       V  0.75137819  0.79776847  0.49882442     1.35200
V3188       V  0.75134050  0.74993765  0.49937607     1.35200
C3189       C  0.75233852  0.77230703  0.46002805     0.77800
C3190       C  0.75016441  0.77506640  0.53814197     0.77900
C3191       C  0.80985049  0.77355570  0.49992773     0.77700
C3192       C  0.69276545  0.77399184  0.49851411     0.77700
O3193       O  0.96430921  0.54040441  0.00033935    -0.71400
O3194       O  0.96124521  0.95373263  0.00179060    -0.71600
O3195       O  0.96538962  0.49902529  0.03037871    -0.71500
O3196       O  0.96144028  0.99528062  0.97151220    -0.71500
O3197       O  0.51231224  0.49373298  0.97148205    -0.71500
O3198       O  0.51337716  0.99826992  0.02918864    -0.71500
O3199       O  0.51113692  0.95221009  0.00177822    -0.71400
O3200       O  0.51418081  0.54005921  0.99898567    -0.71600
V3201       V  0.96486354  0.49712964  0.00133034     1.35200
V3202       V  0.51129950  0.99584264  0.00019880     1.35200
C3203       C  0.48927752  0.55514844  0.99951418     0.77800
C3204       C  0.48576405  0.93803794  0.00223802     0.77900
C3205       C  0.49079681  0.50003311  0.03992836     0.77700
C3206       C  0.48694753  0.49384092  0.96188770     0.77700
O3207       O  0.95546382  0.78989823  0.00068756    -0.71400
O3208       O  0.95725590  0.70259966  0.00159884    -0.71600
O3209       O  0.95591331  0.74712803  0.03051025    -0.71500
O3210       O  0.95702569  0.74508130  0.97192343    -0.71500
O3211       O  0.50694587  0.74592556  0.97257691    -0.71500
O3212       O  0.50583139  0.74768528  0.03061221    -0.71500
O3213       O  0.50718227  0.70351259  0.00198236    -0.71400
O3214       O  0.50541181  0.79031633  0.00127147    -0.71600
V3215       V  0.95730998  0.74621732  0.00118470     1.35200
V3216       V  0.50530916  0.74690145  0.00160745     1.35200
C3217       C  0.48029678  0.80502553  0.00104287     0.77800
C3218       C  0.48260561  0.68809970  0.00168901     0.77900
C3219       C  0.48095135  0.74762235  0.04058608     0.77700
C3220       C  0.48235543  0.74460937  0.96224671     0.77700
O3221       O  0.78611480  0.00857464  0.02882350    -0.71400
O3222       O  0.78938663  0.50900003  0.97012686    -0.71600
O3223       O  0.78945723  0.55206923  0.99961758    -0.71500
O3224       O  0.78716850  0.96558514  0.99914299    -0.71500
O3225       O  0.73728892  0.96512755  0.99935141    -0.71500
O3226       O  0.73961651  0.55259161  0.99839218    -0.71500
O3227       O  0.73705357  0.00845628  0.97018041    -0.71400
O3228       O  0.73859007  0.51009423  0.02779063    -0.71600
V3229       V  0.78561450  0.00907990  0.99968814     1.35200
V3230       V  0.73767340  0.00874023  0.99927519     1.35200
C3231       C  0.76099045  0.00901333  0.03857019     0.77800
C3232       C  0.76208001  0.00916479  0.96040430     0.77900
C3233       C  0.76469156  0.56726104  0.99903969     0.77700
C3234       C  0.76245192  0.95042071  0.99903932     0.77700
O3235       O  0.73733099  0.75892980  0.02762666    -0.71400
O3236       O  0.73777941  0.75807465  0.96920797    -0.71600
O3237       O  0.73744551  0.71526877  0.99869917    -0.71500
O3238       O  0.73695590  0.80214618  0.99835779    -0.71500
O3239       O  0.78683769  0.80247239  0.99896407    -0.71500
O3240       O  0.78731086  0.71525107  0.99878305    -0.71500
O3241       O  0.78768035  0.75886853  0.96979035    -0.71400
O3242       O  0.78719211  0.75866737  0.02789160    -0.71600
V3243       V  0.73833210  0.75866784  0.99846315     1.35200
V3244       V  0.78628107  0.75884157  0.99882576     1.35200
C3245       C  0.76227268  0.75843105  0.03775618     0.77800
C3246       C  0.76298716  0.75815465  0.95952338     0.77900
C3247       C  0.76235188  0.70033284  0.99895027     0.77700
C3248       C  0.76170249  0.81724159  0.99878926     0.77700
O3249       O  0.51819203  0.48910176  0.80523746    -0.71400
O3250       O  0.51670700  0.98908415  0.86304705    -0.71600
O3251       O  0.51755604  0.94537335  0.83407782    -0.71500
O3252       O  0.51561335  0.53309696  0.83434627    -0.71500
O3253       O  0.96580510  0.53186388  0.83286377    -0.71500
O3254       O  0.96777311  0.94612237  0.83210303    -0.71500
O3255       O  0.96597263  0.48923613  0.86255636    -0.71400
O3256       O  0.96924477  0.99062463  0.80373108    -0.71600
V3257       V  0.51694199  0.98893989  0.83388716     1.35200
V3258       V  0.96903272  0.98956888  0.83288009     1.35200
C3259       C  0.49453374  0.98931179  0.79425189     0.77800
C3260       C  0.49134286  0.98845363  0.87247116     0.77900
C3261       C  0.49247909  0.93080644  0.83317098     0.77700
C3262       C  0.49025724  0.54742296  0.83342686     0.77700
O3263       O  0.51623670  0.74093607  0.80618316    -0.71400
O3264       O  0.51037878  0.73881153  0.86417161    -0.71600
O3265       O  0.51443550  0.69627517  0.83447772    -0.71500
O3266       O  0.51238424  0.78309781  0.83585292    -0.71500
O3267       O  0.96273405  0.78267350  0.83250981    -0.71500
O3268       O  0.96459403  0.69535738  0.83312224    -0.71500
O3269       O  0.96057553  0.73954053  0.86198500    -0.71400
O3270       O  0.96650055  0.73853978  0.80375304    -0.71600
V3271       V  0.51236328  0.73972580  0.83513223     1.35200
V3272       V  0.96451742  0.73898900  0.83289316     1.35200
C3273       C  0.49238261  0.74027429  0.79503253     0.77800
C3274       C  0.48455903  0.73925014  0.87306830     0.77900
C3275       C  0.48991816  0.68083390  0.83374554     0.77700
C3276       C  0.48741327  0.79780656  0.83411943     0.77700
O3277       O  0.73919196  0.96304449  0.83274279    -0.71400
O3278       O  0.74118867  0.55100159  0.83230061    -0.71600
O3279       O  0.73845457  0.00616062  0.80374901    -0.71500
O3280       O  0.74041335  0.50853172  0.86167317    -0.71500
O3281       O  0.79077181  0.00760517  0.86115607    -0.71500
O3282       O  0.78570560  0.50110758  0.80228054    -0.71500
O3283       O  0.79082739  0.54801715  0.82964862    -0.71400
O3284       O  0.78905723  0.96246305  0.83281986    -0.71600
V3285       V  0.74073934  0.00658570  0.83269082     1.35200
V3286       V  0.78707454  0.50454747  0.83139697     1.35200
C3287       C  0.76396799  0.94780633  0.83261109     0.77800
C3288       C  0.76685763  0.56442885  0.83089675     0.77900
C3289       C  0.76280071  0.00406371  0.79333545     0.77700
C3290       C  0.76609648  0.00781122  0.87140069     0.77700
O3291       O  0.74033918  0.75379848  0.80291387    -0.71400
O3292       O  0.74304089  0.75818982  0.86086142    -0.71600
O3293       O  0.74203305  0.79970629  0.83062627    -0.71500
O3294       O  0.74186448  0.71273722  0.83308367    -0.71500
O3295       O  0.79167117  0.71242369  0.83143589    -0.71500
O3296       O  0.79190159  0.79953929  0.83079526    -0.71500
O3297       O  0.79294361  0.75685752  0.86043906    -0.71400
O3298       O  0.79027373  0.75541937  0.80194437    -0.71600
V3299       V  0.74282538  0.75616554  0.83188596     1.35200
V3300       V  0.79077938  0.75602357  0.83116623     1.35200
C3301       C  0.76476790  0.75398812  0.79254055     0.77800
C3302       C  0.76820528  0.75794522  0.87062054     0.77900
C3303       C  0.76701633  0.81457868  0.83051924     0.77700
C3304       C  0.76669274  0.69763943  0.83219885     0.77700
O3305       O  0.95502614  0.50610689  0.66712838    -0.71400
O3306       O  0.54193562  0.50694084  0.66767035    -0.71600
O3307       O  0.99859839  0.50692145  0.63843390    -0.71500
O3308       O  0.49839868  0.50617987  0.69656459    -0.71500
O3309       O  0.00099301  0.95796761  0.69649481    -0.71500
O3310       O  0.49777390  0.95481275  0.63819362    -0.71500
O3311       O  0.54295244  0.95665805  0.66632321    -0.71400
O3312       O  0.95557102  0.95612217  0.66832045    -0.71600
V3313       V  0.99844995  0.50557329  0.66746921     1.35200
V3314       V  0.49930347  0.95724591  0.66731011     1.35200
C3315       C  0.94049246  0.98094550  0.66728462     0.77800
C3316       C  0.55747397  0.98174582  0.66637840     0.77900
C3317       C  0.49825720  0.97923197  0.62777770     0.77700
C3318       C  0.49939572  0.98333359  0.70577879     0.77700
O3319       O  0.99987390  0.73315964  0.69543656    -0.71400
O3320       O  0.50328827  0.74461199  0.63802361    -0.71600
O3321       O  0.54523751  0.73951875  0.66785579    -0.71500
O3322       O  0.95805311  0.73861617  0.66543185    -0.71500
O3323       O  0.95737109  0.78717936  0.67299453    -0.71500
O3324       O  0.54444626  0.78922069  0.66922809    -0.71500
O3325       O  0.99771513  0.79369282  0.64214367    -0.71400
O3326       O  0.50411135  0.78251838  0.69996483    -0.71600
V3327       V  0.50161547  0.73994518  0.66678460     1.35200
V3328       V  0.50090997  0.78734286  0.67101078     1.35200
C3329       C  0.50200127  0.75588492  0.70747411     0.77800
C3330       C  0.50040147  0.77094709  0.63021900     0.77900
C3331       C  0.55983530  0.76460400  0.66835660     0.77700
C3332       C  0.94281877  0.76272034  0.66921660     0.77700
O3333       O  0.74934245  0.51582077  0.69402312    -0.71400
O3334       O  0.74819750  0.50941195  0.63598210    -0.71600
O3335       O  0.70503799  0.51299531  0.66539229    -0.71500
O3336       O  0.79251927  0.51199953  0.66463587    -0.71500
O3337       O  0.79224986  0.96207274  0.66741394    -0.71500
O3338       O  0.70536631  0.96252972  0.66865816    -0.71500
O3339       O  0.74771434  0.95866246  0.63890344    -0.71400
O3340       O  0.75037938  0.96594595  0.69706555    -0.71600
V3341       V  0.74877610  0.51160862  0.66503346     1.35200
V3342       V  0.74883934  0.96327619  0.66796811     1.35200
C3343       C  0.74983347  0.99201650  0.70561925     0.77800
C3344       C  0.74859190  0.98223451  0.62766051     0.77900
C3345       C  0.69032235  0.98724112  0.66689576     0.77700
C3346       C  0.80731810  0.98678504  0.66686456     0.77700
O3347       O  0.79562097  0.73838523  0.66229914    -0.71400
O3348       O  0.70857721  0.73784612  0.66612725    -0.71600
O3349       O  0.74883953  0.74128839  0.63528490    -0.71500
O3350       O  0.75516362  0.73535753  0.69336592    -0.71500
O3351       O  0.75442558  0.78509828  0.69561571    -0.71500
O3352       O  0.74976262  0.79095261  0.63774690    -0.71500
O3353       O  0.70825777  0.78751513  0.66793254    -0.71400
O3354       O  0.79547500  0.78802108  0.66552459    -0.71600
V3355       V  0.75206101  0.73915784  0.66432633     1.35200
V3356       V  0.75191771  0.78691493  0.66663968     1.35200
C3357       C  0.81039526  0.76323906  0.66364658     0.77800
C3358       C  0.69343627  0.76255536  0.66732185     0.77900
C3359       C  0.74827832  0.76721817  0.62662005     0.77700
C3360       C  0.75619671  0.75935488  0.70434657     0.77700
C3361       C  0.89405655  0.74204354  0.65497094    -0.11900
C3362       C  0.90888556  0.76247174  0.66843147     0.05100
C3363       C  0.89104309  0.78325881  0.68003384    -0.07200
C3364       C  0.85909147  0.78378685  0.67761910    -0.08000
C3365       C  0.84427734  0.76332998  0.66423512    -0.02500
C3366       C  0.86202065  0.74235224  0.65275109     0.04300
N3367       N  0.84806377  0.72261597  0.63786888     0.66800
H3368       H  0.90747756  0.72630100  0.64564072     0.15700
H3369       H  0.84566141  0.79973092  0.68677653     0.15400
N3370       N  0.90479251  0.80273342  0.69515673     0.74500
O3371       O  0.84381145  0.73226719  0.61984521    -0.38900
O3372       O  0.84581617  0.69429205  0.64147929    -0.38900
O3373       O  0.90733891  0.83107303  0.69169534    -0.39600
O3374       O  0.90850088  0.79288035  0.71318481    -0.39600
C3375       C  0.60970291  0.73667488  0.66613719    -0.11900
C3376       C  0.59400400  0.76474848  0.66796106     0.05100
C3377       C  0.61140225  0.79204397  0.66946622    -0.07200
C3378       C  0.64356664  0.79063324  0.66949414    -0.08000
C3379       C  0.65926230  0.76253849  0.66773632    -0.02500
C3380       C  0.64183827  0.73528643  0.66590020     0.04300
N3381       N  0.65620715  0.70597167  0.66349058     0.66800
H3382       H  0.59694506  0.71534543  0.66477146     0.15700
H3383       H  0.65634354  0.81196904  0.67070854     0.15400
N3384       N  0.59695925  0.82147293  0.67072884     0.74500
O3385       O  0.66075045  0.68939127  0.67904699    -0.38900
O3386       O  0.65824517  0.69423717  0.64582115    -0.38900
O3387       O  0.59570635  0.83519439  0.68778253    -0.39600
O3388       O  0.59129923  0.83611139  0.65446969    -0.39600
C3389       C  0.85626372  0.95720013  0.66745111    -0.11900
C3390       C  0.84139788  0.98590167  0.66726951     0.05100
C3391       C  0.85937384  0.51195429  0.66149287    -0.07200
C3392       C  0.89139362  0.50974520  0.66230973    -0.08000
C3393       C  0.90642020  0.98168309  0.66763254    -0.02500
C3394       C  0.88833376  0.95483214  0.66775068     0.04300
N3395       N  0.90195434  0.92496413  0.66821754     0.66800
H3396       H  0.84292545  0.93617236  0.66738869     0.15700
H3397       H  0.90475871  0.53027044  0.65936068     0.15400
N3398       N  0.84583940  0.54080383  0.65625671     0.74500
O3399       O  0.90573667  0.91169049  0.68522028    -0.38900
O3400       O  0.90401304  0.90961356  0.65183083    -0.38900
O3401       O  0.84397957  0.56163106  0.66968953    -0.39600
O3402       O  0.84205011  0.54754848  0.63760412    -0.39600
C3403       C  0.60599568  0.51084929  0.67231115    -0.11900
C3404       C  0.59147362  0.98267388  0.66624819     0.05100
C3405       C  0.60956933  0.95702670  0.66070675    -0.07200
C3406       C  0.64161616  0.95917945  0.66110813    -0.08000
C3407       C  0.65635822  0.98659780  0.66667440    -0.02500
C3408       C  0.63805720  0.51328698  0.67221706     0.04300
N3409       N  0.65162552  0.54176610  0.67823235     0.66800
H3410       H  0.59252182  0.53089708  0.67661258     0.15700
H3411       H  0.65509688  0.93919134  0.65668738     0.15400
N3412       N  0.59592556  0.92894879  0.65396918     0.74500
O3413       O  0.65712255  0.56166467  0.66473132    -0.38900
O3414       O  0.65021606  0.54996400  0.69678011    -0.38900
O3415       O  0.59283473  0.92390179  0.63499969    -0.39600
O3416       O  0.59314342  0.40797362  0.66917936    -0.39600
C3417       C  0.78092706  0.77526223  0.75923428    -0.11900
C3418       C  0.76340260  0.75381229  0.76996843     0.05100
C3419       C  0.74380362  0.73382632  0.75898461    -0.07200
C3420       C  0.74239221  0.73540311  0.73754470    -0.08000
C3421       C  0.75927604  0.75747988  0.72684716    -0.02500
C3422       C  0.77857177  0.77770187  0.73790424     0.04300
N3423       N  0.79626834  0.80057365  0.72771495     0.66800
H3424       H  0.79585040  0.79099259  0.76755288     0.15700
H3425       H  0.72739043  0.71974206  0.72923398     0.15400
N3426       N  0.72573051  0.71140168  0.76931613     0.74500
O3427       O  0.78556615  0.82741330  0.72616191    -0.38900
O3428       O  0.82467030  0.79613667  0.72507617    -0.38900
O3429       O  0.69742786  0.71636245  0.77207441    -0.39600
O3430       O  0.73610595  0.68449311  0.77121589    -0.39600
C3431       C  0.79243514  0.89825912  0.83204939    -0.11900
C3432       C  0.76405540  0.91373352  0.83193308     0.05100
C3433       C  0.73675854  0.89622782  0.83066688    -0.07200
C3434       C  0.73841929  0.86416895  0.83003281    -0.08000
C3435       C  0.76680642  0.84868417  0.83041601    -0.02500
C3436       C  0.79411739  0.86624485  0.83116511     0.04300
N3437       N  0.82384192  0.85216753  0.83092526     0.66800
H3438       H  0.81381654  0.91110609  0.83272103     0.15700
H3439       H  0.71705902  0.85130107  0.82925141     0.15400
N3440       N  0.70712207  0.91043758  0.82978533     0.74500
O3441       O  0.83757149  0.84874945  0.81404436    -0.38900
O3442       O  0.83890378  0.84994565  0.84744253    -0.38900
O3443       O  0.69406807  0.91389330  0.81261902    -0.39600
O3444       O  0.69153081  0.91309961  0.84598544    -0.39600
C3445       C  0.74035791  0.61465141  0.82815776    -0.11900
C3446       C  0.76803549  0.59848464  0.83086752     0.05100
C3447       C  0.79544737  0.61531795  0.83399263    -0.07200
C3448       C  0.79446917  0.64748834  0.83437252    -0.08000
C3449       C  0.76663640  0.66357080  0.83180842    -0.02500
C3450       C  0.73934630  0.64664550  0.82859983     0.04300
N3451       N  0.71034553  0.66142046  0.82540650     0.66800
H3452       H  0.71895197  0.60233748  0.82557976     0.15700
H3453       H  0.81578775  0.65996985  0.83693664     0.15400
N3454       N  0.82428638  0.60031132  0.83738687     0.74500
O3455       O  0.70084399  0.66578965  0.80734007    -0.38900
O3456       O  0.69167964  0.66360196  0.84011780    -0.38900
O3457       O  0.84332711  0.59835110  0.82287410    -0.39600
O3458       O  0.83334342  0.59566784  0.85553188    -0.39600
C3459       C  0.74171320  0.52196338  0.75972500    -0.11900
C3460       C  0.76075423  0.00157015  0.77077127     0.05100
C3461       C  0.78173267  0.98386217  0.75919389    -0.07200
C3462       C  0.77738342  0.98056755  0.73799634    -0.08000
C3463       C  0.75260961  0.99488379  0.72803398    -0.02500
C3464       C  0.73857464  0.51980817  0.73841069     0.04300
N3465       N  0.72016942  0.54214865  0.72809664     0.66800
H3466       H  0.73145604  0.54134653  0.76774348     0.15700
H3467       H  0.79363903  0.96687862  0.72920879     0.15400
N3468       N  0.80660662  0.96787944  0.76881115     0.74500
O3469       O  0.69129897  0.53951794  0.72859329    -0.38900
O3470       O  0.73178221  0.56772849  0.72356408    -0.38900
O3471       O  0.80323201  0.94013632  0.77377650    -0.39600
O3472       O  0.83328130  0.97918602  0.76834711    -0.39600
C3473       C  0.97493471  0.73607177  0.73783826    -0.11900
C3474       C  0.50054595  0.75116023  0.72972829     0.05100
C3475       C  0.52391518  0.76150226  0.74299551    -0.07200
C3476       C  0.52108779  0.75703714  0.76415425    -0.08000
C3477       C  0.49496500  0.74278405  0.77245227    -0.02500
C3478       C  0.97172047  0.73215612  0.75901246     0.04300
N3479       N  0.94485454  0.71715672  0.76650531     0.66800
H3480       H  0.95685863  0.72790239  0.72763106     0.15700
H3481       H  0.53931496  0.76528381  0.77419283     0.15400
N3482       N  0.55103206  0.77564718  0.73515280     0.74500
O3483       O  0.92031805  0.73234699  0.76867766    -0.38900
O3484       O  0.94378635  0.68822966  0.76649982    -0.38900
O3485       O  0.55400649  0.80438218  0.73636429    -0.39600
O3486       O  0.57409302  0.75924973  0.73080833    -0.39600
C3487       C  0.96405708  0.88185779  0.82844539    -0.11900
C3488       C  0.49166659  0.89679316  0.83342843     0.05100
C3489       C  0.51751921  0.87887590  0.83894026    -0.07200
C3490       C  0.51533089  0.84690290  0.83912055    -0.08000
C3491       C  0.48778061  0.83186676  0.83400346    -0.02500
C3492       C  0.96182362  0.84983116  0.82871817     0.04300
N3493       N  0.93311950  0.83607802  0.82329351     0.66800
H3494       H  0.94381172  0.89511460  0.82417263     0.15700
H3495       H  0.53558470  0.83373712  0.84349790     0.15400
N3496       N  0.54596835  0.89261453  0.84497701     0.74500
O3497       O  0.91268793  0.83303305  0.83682801    -0.38900
O3498       O  0.92578001  0.83366743  0.80461056    -0.38900
O3499       O  0.55193247  0.89592157  0.86381112    -0.39600
O3500       O  0.56741223  0.89481832  0.83207809    -0.39600
C3501       C  0.51746453  0.59758721  0.83453389    -0.11900
C3502       C  0.48954999  0.58154643  0.83323401     0.05100
C3503       C  0.96181284  0.59861926  0.83203360    -0.07200
C3504       C  0.96261708  0.63072109  0.83229880    -0.08000
C3505       C  0.49056004  0.64671567  0.83362116    -0.02500
C3506       C  0.51828629  0.62967239  0.83471283     0.04300
N3507       N  0.54757254  0.64436915  0.83604548     0.66800
H3508       H  0.53912479  0.58514202  0.83549684     0.15700
H3509       H  0.94097125  0.64318490  0.83130268     0.15400
N3510       N  0.93258885  0.58390083  0.83027304     0.74500
O3511       O  0.55950356  0.64910866  0.85344363    -0.38900
O3512       O  0.56410852  0.64616666  0.82022790    -0.38900
O3513       O  0.91515867  0.58284386  0.84568956    -0.39600
O3514       O  0.92161209  0.57849465  0.81268380    -0.39600
C3515       C  0.52329063  0.48518078  0.76186552    -0.11900
C3516       C  0.49551096  0.98818622  0.77151780     0.05100
C3517       C  0.97256006  0.00223701  0.75927967    -0.07200
C3518       C  0.97467594  0.00097287  0.73786713    -0.08000
C3519       C  0.49863812  0.98484696  0.72829854    -0.02500
C3520       C  0.52506943  0.48307425  0.74042176     0.04300
N3521       N  0.55446584  0.48282136  0.73065627     0.66800
H3522       H  0.54445848  0.48664745  0.77063173     0.15700
H3523       H  0.95703265  0.01196403  0.72862727     0.15400
N3524       N  0.94703767  0.01797801  0.76825961     0.74500
O3525       O  0.56606768  0.50767478  0.72458451    -0.38900
O3526       O  0.56614578  0.45765738  0.72499338    -0.38900
O3527       O  0.94683258  0.04692010  0.76872677    -0.39600
O3528       O  0.92233990  0.00358697  0.77133600    -0.39600
C3529       C  0.79054705  0.76862455  0.92684827    -0.11900
C3530       C  0.76408143  0.75771971  0.93677566     0.05100
C3531       C  0.73949880  0.74655245  0.92471664    -0.07200
C3532       C  0.74153521  0.74707023  0.90332022    -0.08000
C3533       C  0.76785945  0.75812852  0.89336847    -0.02500
C3534       C  0.79266211  0.76894213  0.90539271     0.04300
N3535       N  0.81961176  0.78141668  0.89616378     0.66800
H3536       H  0.80971285  0.77748315  0.93581600     0.15700
H3537       H  0.72239113  0.73807706  0.89439320     0.15400
N3538       N  0.71291030  0.73321292  0.93386306     0.74500
O3539       O  0.82112268  0.80993105  0.89304677    -0.38900
O3540       O  0.84389002  0.76551185  0.89555084    -0.38900
O3541       O  0.68787509  0.74793447  0.93386803    -0.39600
O3542       O  0.71270707  0.70480405  0.93753377    -0.39600
C3543       C  0.78844261  0.86709062  0.99391715    -0.11900
C3544       C  0.76142108  0.85129846  0.99893888     0.05100
C3545       C  0.73478672  0.86846759  0.00390399    -0.07200
C3546       C  0.73571934  0.90055248  0.00373842    -0.08000
C3547       C  0.76274848  0.91635681  0.99874863    -0.02500
C3548       C  0.78934808  0.89918753  0.99368884     0.04300
N3549       N  0.81724638  0.91381695  0.98765852     0.66800
H3550       H  0.80911504  0.85443066  0.98983687     0.15700
H3551       H  0.71503100  0.91319023  0.00781125     0.15400
N3552       N  0.70678289  0.85383969  0.00971948     0.74500
O3553       O  0.83846620  0.91754850  0.00068454    -0.38900
O3554       O  0.82312525  0.91676922  0.96882641    -0.38900
O3555       O  0.70060857  0.85079248  0.02850108    -0.39600
O3556       O  0.68578076  0.85013435  0.99653325    -0.39600
C3557       C  0.79071715  0.65070739  0.99836674    -0.11900
C3558       C  0.76246735  0.66630268  0.99938044     0.05100
C3559       C  0.73508719  0.64893770  0.00068746    -0.07200
C3560       C  0.73650661  0.61690317  0.00043891    -0.08000
C3561       C  0.76473453  0.60129939  0.99920327    -0.02500
C3562       C  0.79215105  0.61865737  0.99834392     0.04300
N3563       N  0.82170165  0.60430405  0.99732991     0.66800
H3564       H  0.81211199  0.66346594  0.99748480     0.15700
H3565       H  0.71511413  0.60415528  0.00142991     0.15400
N3566       N  0.70562282  0.66326410  0.00264470     0.74500
O3567       O  0.83385935  0.59950476  0.98006373    -0.38900
O3568       O  0.83807158  0.60267598  0.01332144    -0.38900
O3569       O  0.68788026  0.66443045  0.98729858    -0.39600
O3570       O  0.69499947  0.66858155  0.02029724    -0.39600
C3571       C  0.79117382  0.00985961  0.92757405    -0.11900
C3572       C  0.76263899  0.00930895  0.93763579     0.05100
C3573       C  0.73709912  0.50787904  0.92560720    -0.07200
C3574       C  0.73838575  0.50804067  0.90423893    -0.08000
C3575       C  0.76592355  0.00881125  0.89417821    -0.02500
C3576       C  0.79308539  0.00976041  0.90614192     0.04300
N3577       N  0.82281452  0.01083976  0.89691762     0.66800
H3578       H  0.81242931  0.01043829  0.93640002     0.15700
H3579       H  0.71684612  0.50679684  0.89576230     0.15400
N3580       N  0.70754863  0.50644192  0.93509057     0.74500
O3581       O  0.83528745  0.03651913  0.89385685    -0.38900
O3582       O  0.83903916  0.98680727  0.89624202    -0.38900
O3583       O  0.69160940  0.53057059  0.93669646    -0.39600
O3584       O  0.69181291  0.98370017  0.93720636    -0.39600
C3585       C  0.95548163  0.74540493  0.92827150    -0.11900
C3586       C  0.48310183  0.74250038  0.93945273     0.05100
C3587       C  0.51076701  0.73743569  0.92854051    -0.07200
C3588       C  0.51041884  0.73624256  0.90710345    -0.08000
C3589       C  0.48299990  0.73968532  0.89587667    -0.02500
C3590       C  0.95514992  0.74397396  0.90677180     0.04300
N3591       N  0.92639116  0.74732187  0.89634219     0.66800
H3592       H  0.93388076  0.74904500  0.93624025     0.15700
H3593       H  0.53206536  0.73250331  0.89920068     0.15400
N3594       N  0.53947086  0.73287475  0.93887053     0.74500
O3595       O  0.90921204  0.72425808  0.89408684    -0.38900
O3596       O  0.91553630  0.77382845  0.89339286    -0.38900
O3597       O  0.54931311  0.70592148  0.94159740    -0.39600
O3598       O  0.55770102  0.75515656  0.94094803    -0.39600
C3599       C  0.95662275  0.88934003  0.99757386    -0.11900
C3600       C  0.48435167  0.90402415  0.00281261     0.05100
C3601       C  0.51005364  0.88584250  0.00816154    -0.07200
C3602       C  0.50799416  0.85387093  0.00737098    -0.08000
C3603       C  0.48057897  0.83908142  0.00165327    -0.02500
C3604       C  0.95443537  0.85727448  0.99701112     0.04300
N3605       N  0.92578474  0.84372040  0.99120812     0.66800
H3606       H  0.93642558  0.90283711  0.99349869     0.15700
H3607       H  0.52819299  0.84047293  0.01157628     0.15400
N3608       N  0.53812037  0.89932380  0.01516724     0.74500
O3609       O  0.91964543  0.83992466  0.97243649    -0.38900
O3610       O  0.90443737  0.84200083  0.00421683    -0.38900
O3611       O  0.54298464  0.90188817  0.03419398    -0.39600
O3612       O  0.06020806  0.90222195  0.00287351    -0.39600
C3613       C  0.51266319  0.63934865  0.00232215    -0.11900
C3614       C  0.48385942  0.65406239  0.00117615     0.05100
C3615       C  0.95712237  0.63588135  0.99906917    -0.07200
C3616       C  0.95974729  0.60396454  0.99822294    -0.08000
C3617       C  0.48854187  0.58918708  0.99952430    -0.02500
C3618       C  0.51526087  0.60734150  0.00153167     0.04300
N3619       N  0.54516534  0.59383309  0.00309680     0.66800
H3620       H  0.53356509  0.65276747  0.00390539     0.15700
H3621       H  0.93879811  0.59061436  0.99664962     0.15400
N3622       N  0.92711812  0.64921511  0.99772458     0.74500
O3623       O  0.56151989  0.59126476  0.98722833    -0.38900
O3624       O  0.55747496  0.59071872  0.02053260    -0.38900
O3625       O  0.91429398  0.65173936  0.98041044    -0.39600
O3626       O  0.91116249  0.65197632  0.01376013    -0.39600
C3627       C  0.51386533  0.98279837  0.92886144    -0.11900
C3628       C  0.48647728  0.49176227  0.93918520     0.05100
C3629       C  0.96164990  0.50262744  0.92715708    -0.07200
C3630       C  0.96335132  0.50130230  0.90569506    -0.08000
C3631       C  0.49003677  0.98824736  0.89522831    -0.02500
C3632       C  0.51595472  0.98119896  0.90749398     0.04300
N3633       N  0.04439630  0.97150050  0.89866058     0.66800
H3634       H  0.53422469  0.97740531  0.93787878     0.15700
H3635       H  0.94440943  0.51049715  0.89671588     0.15400
N3636       N  0.43511715  0.51626851  0.93636813     0.74500
O3637       O  0.56581700  0.99064856  0.89650854    -0.38900
O3638       O  0.05047749  0.94320633  0.89774025    -0.38900
O3639       O  0.43305893  0.54510459  0.93752667    -0.39600
O3640       O  0.91135284  0.49997837  0.93897485    -0.39600
C3641       C  0.73611020  0.74871092  0.57028051    -0.11900
C3642       C  0.74853900  0.77473847  0.56080818     0.05100
C3643       C  0.75915708  0.79916774  0.57322211    -0.07200
C3644       C  0.75820969  0.79651182  0.59462577    -0.08000
C3645       C  0.74671734  0.76995965  0.60403358    -0.02500
C3646       C  0.73483801  0.74623171  0.59159990     0.04300
N3647       N  0.72030697  0.71999353  0.60032221     0.66800
H3648       H  0.72688893  0.73005955  0.56102535     0.15700
H3649       H  0.76737707  0.81511590  0.60395155     0.15400
N3650       N  0.77222849  0.82615183  0.56447068     0.74500
O3651       O  0.69194746  0.72104674  0.60434188    -0.38900
O3652       O  0.73392343  0.69439400  0.59997145    -0.38900
O3653       O  0.75666581  0.85063330  0.56409711    -0.39600
O3654       O  0.80089196  0.82732811  0.56159734    -0.39600
C3655       C  0.74731556  0.95143062  0.57254053    -0.11900
C3656       C  0.74992536  0.97862636  0.56117890     0.05100
C3657       C  0.74618442  0.51006627  0.57168849    -0.07200
C3658       C  0.74585767  0.50965321  0.59312659    -0.08000
C3659       C  0.74898230  0.98001546  0.60483185    -0.02500
C3660       C  0.74677758  0.95182374  0.59406885     0.04300
N3661       N  0.74356384  0.92335287  0.60461946     0.66800
H3662       H  0.74531197  0.92950723  0.56466924     0.15700
H3663       H  0.74391840  0.53141230  0.60119527     0.15400
N3664       N  0.74398441  0.53908796  0.56164247     0.74500
O3665       O  0.71705538  0.91233040  0.60720146    -0.38900
O3666       O  0.76682176  0.90633398  0.60703023    -0.38900
O3667       O  0.71798695  0.55168680  0.55958547    -0.39600
O3668       O  0.76798805  0.55482331  0.55911572    -0.39600
C3669       C  0.85892311  0.79965900  0.50850135    -0.11900
C3670       C  0.84381179  0.77357783  0.50086750     0.05100
C3671       C  0.86147777  0.74800861  0.49459131    -0.07200
C3672       C  0.89351806  0.74884421  0.49622272    -0.08000
C3673       C  0.90864318  0.77496186  0.50372819    -0.02500
C3674       C  0.89100476  0.80058578  0.50999226     0.04300
N3675       N  0.90514981  0.82738371  0.51844063     0.66800
H3676       H  0.84574454  0.81941223  0.51362602     0.15700
H3677       H  0.90669230  0.72918953  0.49092816     0.15400
N3678       N  0.84749203  0.72179477  0.48528569     0.74500
O3679       O  0.90925485  0.82928496  0.53757725    -0.38900
O3680       O  0.90744847  0.85118584  0.50759208    -0.38900
O3681       O  0.84552665  0.72039167  0.46599281    -0.39600
O3682       O  0.84377752  0.69775237  0.49570131    -0.39600
C3683       C  0.64280202  0.80228241  0.49812444    -0.11900
C3684       C  0.65861814  0.77411416  0.49871281     0.05100
C3685       C  0.64136550  0.74671297  0.49994768    -0.07200
C3686       C  0.60931793  0.74801383  0.50088092    -0.08000
C3687       C  0.59353227  0.77610585  0.50049100    -0.02500
C3688       C  0.61065614  0.80353914  0.49891022     0.04300
N3689       N  0.59587894  0.83285528  0.49801955     0.66800
H3690       H  0.65546473  0.82370203  0.49707166     0.15700
H3691       H  0.59669545  0.72657276  0.50196431     0.15400
N3692       N  0.65585859  0.71726313  0.50041094     0.74500
O3693       O  0.59103369  0.84783036  0.51429703    -0.38900
O3694       O  0.58671327  0.84333929  0.48103167    -0.38900
O3695       O  0.65908578  0.70359210  0.51731904    -0.39600
O3696       O  0.65945526  0.70253682  0.48388899    -0.39600
C3697       C  0.02007715  0.75384969  0.59662395    -0.11900
C3698       C  0.50145958  0.77432068  0.60771248     0.05100
C3699       C  0.48407516  0.79652758  0.59701471    -0.07200
C3700       C  0.48589727  0.79811077  0.57554499    -0.08000
C3701       C  0.50410951  0.77719574  0.56450801    -0.02500
C3702       C  0.02143977  0.75500775  0.57527239     0.04300
N3703       N  0.04092399  0.73370102  0.56477188     0.66800
H3704       H  0.03371446  0.73670622  0.60459924     0.15700
H3705       H  0.47182308  0.81471676  0.56741432     0.15400
N3706       N  0.46249632  0.81566670  0.60749069     0.74500
O3707       O  0.03129194  0.70695038  0.56109142    -0.38900
O3708       O  0.06929167  0.73929164  0.56328747    -0.38900
O3709       O  0.46909416  0.84331683  0.61107841    -0.39600
O3710       O  0.43508572  0.80675073  0.60952705    -0.39600
C3711       C  0.85429594  0.50923353  0.50119105    -0.11900
C3712       C  0.83985532  0.97616535  0.49817374     0.05100
C3713       C  0.85787770  0.95033684  0.49288316    -0.07200
C3714       C  0.88994539  0.95232675  0.49350026    -0.08000
C3715       C  0.90476040  0.97962216  0.49933208    -0.02500
C3716       C  0.88629873  0.51150912  0.50196089     0.04300
N3717       N  0.90047921  0.03325998  0.51170580     0.66800
H3718       H  0.84080484  0.52999182  0.50344587     0.15700
H3719       H  0.90336392  0.93224662  0.48917426     0.15400
N3720       N  0.84450802  0.42482748  0.49203013     0.74500
O3721       O  0.90317589  0.55960755  0.49160277    -0.38900
O3722       O  0.90280611  0.03831815  0.53071957    -0.38900
O3723       O  0.84286441  0.41423503  0.47402006    -0.39600
O3724       O  0.84062843  0.90078205  0.49911742    -0.39600
C3725       C  0.60486926  0.95114002  0.49682583    -0.11900
C3726       C  0.58983371  0.97927147  0.50031271     0.05100
C3727       C  0.60767820  0.51241161  0.49958863    -0.07200
C3728       C  0.63972736  0.51005805  0.49941292    -0.08000
C3729       C  0.65485321  0.97549595  0.50043884    -0.02500
C3730       C  0.63696338  0.94897805  0.49687776     0.04300
N3731       N  0.65083513  0.91980531  0.49285266     0.66800
H3732       H  0.59163177  0.93046678  0.49386092     0.15700
H3733       H  0.65305229  0.53109334  0.49866646     0.15400
N3734       N  0.59404658  0.54225816  0.49885701     0.74500
O3735       O  0.65435030  0.90096166  0.50733482    -0.38900
O3736       O  0.65355633  0.91064528  0.47456244    -0.38900
O3737       O  0.59220846  0.55801078  0.51508676    -0.39600
O3738       O  0.58998055  0.55509194  0.48173281    -0.39600
C3739       C  0.00110627  0.95272790  0.57202151    -0.11900
C3740       C  0.49719116  0.98068688  0.56157475     0.05100
C3741       C  0.49851432  0.51381058  0.57405975    -0.07200
C3742       C  0.49876959  0.51172574  0.59548853    -0.08000
C3743       C  0.49768720  0.97881936  0.60502157    -0.02500
C3744       C  0.00120267  0.95154874  0.59346405     0.04300
N3745       N  0.00456736  0.92240885  0.60314810     0.66800
H3746       H  0.00403133  0.93146003  0.56349730     0.15700
H3747       H  0.50035273  0.53278634  0.60438001     0.15400
N3748       N  0.50026344  0.54349390  0.56490531     0.74500
O3749       O  0.98089678  0.90682237  0.60699936    -0.38900
O3750       O  0.03073700  0.90987705  0.60407843    -0.38900
O3751       O  0.47635126  0.55988614  0.56370356    -0.39600
O3752       O  0.52623491  0.55553402  0.56197334    -0.39600
C3753       C  0.75815080  0.74407615  0.40486333    -0.11900
C3754       C  0.75097693  0.77071141  0.39376798     0.05100
C3755       C  0.74481877  0.79811237  0.40470460    -0.07200
C3756       C  0.74558874  0.79813851  0.42621116    -0.08000
C3757       C  0.75251346  0.77134984  0.43726810    -0.02500
C3758       C  0.75910518  0.74411530  0.42627089     0.04300
N3759       N  0.76769434  0.71638287  0.43645694     0.66800
H3760       H  0.76347426  0.72284364  0.39686833     0.15700
H3761       H  0.74041036  0.81933517  0.43429274     0.15400
N3762       N  0.73711212  0.82596036  0.39436377     0.74500
O3763       O  0.74743332  0.69647558  0.44009043    -0.38900
O3764       O  0.79571192  0.70883680  0.43724436    -0.38900
O3765       O  0.70932080  0.83428598  0.39336348    -0.39600
O3766       O  0.75799399  0.84521797  0.39072050    -0.39600
C3767       C  0.74343907  0.50865754  0.42670711    -0.11900
C3768       C  0.74346383  0.97473966  0.43722411     0.07500
C3769       C  0.74481092  0.94813991  0.42478723    -0.07200
C3770       C  0.74458074  0.95090250  0.40334419    -0.08000
C3771       C  0.74258170  0.97973881  0.39377838    -0.02500
C3772       C  0.74331194  0.51102710  0.40532932     0.04300
N3773       N  0.74112203  0.54090183  0.39644741     0.66800
H3774       H  0.74235718  0.52969031  0.43565802     0.15700
H3775       H  0.74619622  0.93015968  0.39412943     0.15400
N3776       N  0.74643957  0.91816979  0.43353173     0.74500
O3777       O  0.71494237  0.55274752  0.39355842    -0.38900
O3778       O  0.76470122  0.55768395  0.39579088    -0.38900
O3779       O  0.72213124  0.90265895  0.43530637    -0.39600
O3780       O  0.77218263  0.90490273  0.43503237    -0.39600
C3781       C  0.49810438  0.74197970  0.40891023    -0.11900
C3782       C  0.50418426  0.76855837  0.39749769     0.05100
C3783       C  0.01003130  0.79652443  0.40823400    -0.07200
C3784       C  0.00800109  0.79748718  0.42967990    -0.08000
C3785       C  0.50108038  0.77082644  0.44102937    -0.02500
C3786       C  0.49671896  0.74278612  0.43037649     0.04300
N3787       N  0.49084736  0.71481854  0.44104901     0.66800
H3788       H  0.49405764  0.72031884  0.40114123     0.15700
H3789       H  0.01252133  0.81901590  0.43750240     0.15400
N3790       N  0.01897274  0.82371134  0.39770933     0.74500
O3791       O  0.46397680  0.70862785  0.44697586    -0.38900
O3792       O  0.51274882  0.69677228  0.44518630    -0.38900
O3793       O  0.99916755  0.84419614  0.39409218    -0.39600
O3794       O  0.04717152  0.82976274  0.39570004    -0.39600
C3795       C  0.89407640  0.79021294  0.33290266    -0.11900
C3796       C  0.90961339  0.76221887  0.33566990     0.05100
C3797       C  0.89216671  0.73505943  0.33748794    -0.07200
C3798       C  0.86006228  0.73655405  0.33681095    -0.08000
C3799       C  0.84455256  0.76457040  0.33403969    -0.02500
C3800       C  0.86202244  0.79164607  0.33192115     0.04300
N3801       N  0.84780820  0.82076354  0.32838839     0.66800
H3802       H  0.90690700  0.81141395  0.33118770     0.15700
H3803       H  0.84719944  0.71533579  0.33834269     0.15400
N3804       N  0.90645995  0.70572237  0.33989197     0.74500
O3805       O  0.84363307  0.83887868  0.34326596    -0.38900
O3806       O  0.84567297  0.83077420  0.31029422    -0.38900
O3807       O  0.90796561  0.69384316  0.35749452    -0.39600
O3808       O  0.91075431  0.68906735  0.32428369    -0.39600
C3809       C  0.61001290  0.73718917  0.33109376    -0.11900
C3810       C  0.59450863  0.76538279  0.33273364     0.05100
C3811       C  0.61186308  0.79274354  0.33285273    -0.07200
C3812       C  0.64393797  0.79125651  0.33194264    -0.08000
C3813       C  0.65948597  0.76299520  0.33076555    -0.02500
C3814       C  0.64204149  0.73570595  0.33003785     0.04300
N3815       N  0.65625728  0.70624481  0.32813727     0.66800
H3816       H  0.59718155  0.71582031  0.33059050     0.15700
H3817       H  0.65676701  0.81262647  0.33239339     0.15400
N3818       N  0.59751383  0.82222694  0.33415818     0.74500
O3819       O  0.66050386  0.69022817  0.34399218    -0.38900
O3820       O  0.65767421  0.69363052  0.31071134    -0.38900
O3821       O  0.59646237  0.83591051  0.35123285    -0.39600
O3822       O  0.59228432  0.83709377  0.31792977    -0.39600
C3823       C  0.99827514  0.50968678  0.40514301    -0.11900
C3824       C  0.49449358  0.98026469  0.39464899     0.05100
C3825       C  0.48431713  0.95456595  0.40588442    -0.07200
C3826       C  0.48566036  0.95504691  0.42737351    -0.08000
C3827       C  0.49618891  0.98102258  0.43805489    -0.02500
C3828       C  0.99857988  0.51160796  0.42649573     0.04300
N3829       N  0.00119600  0.54124226  0.43574801     0.66800
H3830       H  0.00036637  0.53082459  0.39649825     0.15700
H3831       H  0.47771858  0.93510962  0.43576655     0.15400
N3832       N  0.47061395  0.92873082  0.39593647     0.74500
O3833       O  0.02743334  0.55315958  0.43790115    -0.38900
O3834       O  0.97750821  0.55782703  0.43753576    -0.38900
O3835       O  0.48761429  0.90756914  0.38912689    -0.39600
O3836       O  0.44238663  0.92352430  0.39864469    -0.39600
C3837       C  0.88959853  0.51044378  0.32780279    -0.11900
C3838       C  0.90320452  0.98408457  0.33218460     0.05100
C3839       C  0.88610707  0.95896334  0.33962434    -0.07200
C3840       C  0.85402837  0.96034260  0.33976481    -0.08000
C3841       C  0.83824323  0.98617971  0.33247537    -0.02500
C3842       C  0.85755796  0.51271287  0.32769180     0.04300
N3843       N  0.84383001  0.54178294  0.32328299     0.66800
H3844       H  0.90283618  0.53101931  0.32472739     0.15700
H3845       H  0.84134896  0.94094792  0.34583439     0.15400
N3846       N  0.90074553  0.93239750  0.34797875     0.74500
O3847       O  0.84015382  0.56094419  0.33762562    -0.38900
O3848       O  0.84228915  0.55077418  0.30492514    -0.38900
O3849       O  0.89930607  0.92787666  0.36704949    -0.39600
O3850       O  0.90693307  0.91012825  0.33626822    -0.39600
C3851       C  0.63823601  0.51238198  0.32769890    -0.11900
C3852       C  0.65332795  0.98296341  0.33087809     0.05100
C3853       C  0.63609485  0.95628511  0.33503819    -0.07200
C3854       C  0.60399921  0.95794706  0.33586386    -0.08000
C3855       C  0.58831319  0.98574789  0.33264805    -0.02500
C3856       C  0.60611677  0.51311207  0.32843280     0.04300
N3857       N  0.59080708  0.54152237  0.32431426     0.66800
H3858       H  0.65044784  0.53342916  0.32415218     0.15700
H3859       H  0.59126264  0.93716743  0.33928242     0.15400
N3860       N  0.65068096  0.92749500  0.33905717     0.74500
O3861       O  0.58496176  0.55950408  0.33900680    -0.38900
O3862       O  0.59055701  0.55183026  0.30625732    -0.38900
O3863       O  0.65480150  0.91914507  0.35738203    -0.39600
O3864       O  0.65296088  0.90796935  0.32480230    -0.39600
C3865       C  0.78753021  0.75409282  0.09386911    -0.11900
C3866       C  0.75906825  0.75328534  0.10395753     0.05100
C3867       C  0.73183128  0.75421183  0.09199021    -0.07200
C3868       C  0.73362067  0.75626336  0.07063787    -0.08000
C3869       C  0.76203574  0.75710205  0.06053480    -0.02500
C3870       C  0.78931747  0.75585366  0.07246390     0.04300
N3871       N  0.81907390  0.75609780  0.06322208     0.66800
H3872       H  0.80883929  0.75332999  0.10266490     0.15700
H3873       H  0.71228048  0.75693053  0.06187613     0.15400
N3874       N  0.70204584  0.75288364  0.10112786     0.74500
O3875       O  0.83359787  0.78104220  0.06197494    -0.38900
O3876       O  0.83328177  0.73109645  0.06065650    -0.38900
O3877       O  0.68635483  0.77715018  0.10286327    -0.39600
O3878       O  0.68901865  0.72723042  0.10308851    -0.39600
C3879       C  0.77841667  0.73977504  0.23892534    -0.11900
C3880       C  0.75449677  0.75331306  0.22755802     0.05100
C3881       C  0.73011407  0.76791487  0.23812992    -0.07200
C3882       C  0.73056761  0.76940888  0.25955052    -0.08000
C3883       C  0.75445335  0.75592960  0.27080270    -0.02500
C3884       C  0.77836946  0.74061494  0.26040478     0.04300
N3885       N  0.80339523  0.72702864  0.27140245     0.66800
H3886       H  0.79727685  0.72830781  0.23108191     0.15700
H3887       H  0.71197351  0.78117544  0.26750067     0.15400
N3888       N  0.70529166  0.78232486  0.22739387     0.74500
O3889       O  0.80293935  0.69867299  0.27521770    -0.38900
O3890       O  0.82823010  0.74166744  0.27342332    -0.38900
O3891       O  0.67946056  0.76922750  0.22657690    -0.39600
O3892       O  0.70722665  0.81034500  0.22278688    -0.39600
C3893       C  0.78911226  0.50225652  0.07181878    -0.11900
C3894       C  0.76076291  0.00877996  0.06132648     0.05100
C3895       C  0.73402646  0.01569334  0.07274047    -0.07200
C3896       C  0.73454624  0.01345025  0.09412273    -0.08000
C3897       C  0.76141490  0.00505081  0.10473315    -0.02500
C3898       C  0.78888495  0.50051407  0.09325219     0.04300
N3899       N  0.81671970  0.49227088  0.10361080     0.66800
H3900       H  0.81028118  0.49681109  0.06375640     0.15700
H3901       H  0.71367762  0.01895878  0.10251697     0.15400
N3902       N  0.70644970  0.02621391  0.06302192     0.74500
O3903       O  0.82345155  0.46428878  0.10578418    -0.38900
O3904       O  0.83729749  0.51227714  0.10626485    -0.38900
O3905       O  0.68381327  0.00830687  0.06137327    -0.39600
O3906       O  0.70242728  0.05463065  0.06045028    -0.39600
C3907       C  0.78424027  0.89352862  0.16654151    -0.11900
C3908       C  0.75613276  0.90944273  0.16587397     0.05100
C3909       C  0.72850896  0.89232887  0.16549183    -0.07200
C3910       C  0.72961953  0.86022914  0.16553270    -0.08000
C3911       C  0.75775961  0.84434832  0.16607160    -0.02500
C3912       C  0.78535266  0.86148046  0.16667662     0.04300
N3913       N  0.81481766  0.84689007  0.16738313     0.66800
H3914       H  0.80581125  0.90602744  0.16695665     0.15700
H3915       H  0.70807885  0.84766845  0.16519598     0.15400
N3916       N  0.69906334  0.90697211  0.16514487     0.74500
O3917       O  0.82916522  0.84196119  0.15090090    -0.38900
O3918       O  0.82892141  0.84486908  0.18428382    -0.38900
O3919       O  0.68442832  0.90878599  0.14843602    -0.39600
O3920       O  0.68511170  0.91168848  0.18180656    -0.39600
C3921       C  0.78326746  0.60970787  0.16284824    -0.11900
C3922       C  0.75568917  0.59440233  0.16711822     0.05100
C3923       C  0.72896281  0.61196504  0.17108866    -0.07200
C3924       C  0.73024962  0.64398834  0.17047559    -0.08000
C3925       C  0.75774270  0.65934019  0.16603214    -0.02500
C3926       C  0.78457117  0.64176032  0.16222686     0.04300
N3927       N  0.81319443  0.65587774  0.15721505     0.66800
H3928       H  0.80405999  0.59669224  0.15961791     0.15700
H3929       H  0.70942470  0.65693490  0.17371365     0.15400
N3930       N  0.70046550  0.59781917  0.17634571     0.74500
O3931       O  0.83298590  0.66011645  0.17114344    -0.38900
O3932       O  0.82122123  0.65756088  0.13867000    -0.38900
O3933       O  0.69248856  0.59680180  0.19491759    -0.39600
O3934       O  0.68064252  0.59303189  0.16252027    -0.39600
C3935       C  0.76868916  0.97251021  0.23724152    -0.11900
C3936       C  0.75466652  0.99775282  0.22776911     0.05100
C3937       C  0.73467197  0.51937272  0.23886639    -0.07200
C3938       C  0.73426023  0.51602917  0.26017382    -0.08000
C3939       C  0.75061110  0.99007096  0.27055321    -0.02500
C3940       C  0.76669702  0.96837436  0.25847843     0.04300
N3941       N  0.78208314  0.94274467  0.26754699     0.66800
H3942       H  0.78098637  0.95566621  0.22803387     0.15700
H3943       H  0.72321176  0.53369302  0.26938770     0.15400
N3944       N  0.72164488  0.54630943  0.22988782     0.74500
O3945       O  0.76935252  0.91676658  0.26721656    -0.38900
O3946       O  0.81044922  0.94456422  0.27154349    -0.38900
O3947       O  0.69281774  0.54859955  0.22813497    -0.39600
O3948       O  0.73813427  0.56986204  0.22776950    -0.39600
C3949       C  0.95832591  0.75040819  0.09732250    -0.11900
C3950       C  0.48726927  0.74796093  0.10699462     0.05100
C3951       C  0.51374093  0.74573787  0.09454540    -0.07200
C3952       C  0.51081571  0.74565946  0.07317431    -0.08000
C3953       C  0.48196475  0.74789361  0.06345068    -0.02500
C3954       C  0.95541428  0.75047417  0.07586303     0.04300
N3955       N  0.92541167  0.75354213  0.06706707     0.66800
H3956       H  0.93758899  0.75248240  0.10648080     0.15700
H3957       H  0.53166343  0.74376673  0.06411139     0.15400
N3958       N  0.54389378  0.74341256  0.10321293     0.74500
O3959       O  0.90924683  0.72989790  0.06422431    -0.38900
O3960       O  0.91277972  0.77963428  0.06653001    -0.38900
O3961       O  0.05660186  0.71712300  0.10425339    -0.39600
O3962       O  0.55985889  0.76734675  0.10539203    -0.39600
C3963       C  0.97732977  0.77639549  0.26332271    -0.11900
C3964       C  0.49944722  0.75876323  0.27388981     0.05100
C3965       C  0.51977120  0.73993286  0.26264496    -0.07200
C3966       C  0.51744698  0.73856067  0.24123079    -0.08000
C3967       C  0.49490576  0.75541522  0.23067253    -0.02500
C3968       C  0.97468645  0.77464528  0.24191863     0.04300
N3969       N  0.95224598  0.79332673  0.23181329     0.66800
H3970       H  0.96167581  0.79123116  0.27180439     0.15700
H3971       H  0.53344853  0.72409421  0.23276525     0.15400
N3972       N  0.54387579  0.72332375  0.27265251     0.74500
O3973       O  0.92465977  0.78447017  0.23095278    -0.38900
O3974       O  0.95847715  0.82094409  0.22787942    -0.38900
O3975       O  0.54222146  0.69450302  0.27397308    -0.39600
O3976       O  0.56917740  0.73646627  0.27621544    -0.39600
C3977       C  0.51619781  0.00453435  0.09493159    -0.11900
C3978       C  0.48974494  0.50354705  0.10609731     0.05100
C3979       C  0.96209013  0.50378488  0.09461422    -0.07200
C3980       C  0.96317211  0.50307701  0.07319658    -0.08000
C3981       C  0.49133274  0.50214511  0.06264713    -0.02500
C3982       C  0.51692644  0.00463282  0.07349768     0.04300
N3983       N  0.54581320  0.00926630  0.06359864     0.66800
H3984       H  0.53766409  0.00772827  0.10325667     0.15700
H3985       H  0.94155292  0.50277430  0.06477112     0.15400
N3986       N  0.93267755  0.50402483  0.10432247     0.74500
O3987       O  0.55479311  0.03623763  0.06007006    -0.38900
O3988       O  0.56478065  0.98735796  0.06246779    -0.38900
O3989       O  0.91773423  0.52882728  0.10551179    -0.39600
O3990       O  0.91915612  0.47895869  0.10764334    -0.39600
C3991       C  0.51859643  0.89173900  0.16473422    -0.11900
C3992       C  0.99052948  0.90743161  0.16741749     0.05100
C3993       C  0.96348221  0.89018982  0.17061441    -0.07200
C3994       C  0.96485513  0.85817073  0.17054820    -0.08000
C3995       C  0.99273776  0.84247594  0.16756104    -0.02500
C3996       C  0.51999242  0.85968526  0.16483964     0.04300
N3997       N  0.54920437  0.84518996  0.16199658     0.66800
H3998       H  0.53976619  0.90442858  0.16239542     0.15700
H3999       H  0.94372284  0.84551049  0.17308249     0.15400
N4000       N  0.93447283  0.90461635  0.17438032     0.74500
O4001       O  0.55900466  0.84061123  0.14404616    -0.38900
O4002       O  0.56762727  0.84327197  0.17695032    -0.38900
O4003       O  0.91538121  0.90725070  0.15986369    -0.39600
O4004       O  0.92529697  0.90771027  0.19260749    -0.39600
C4005       C  0.51804061  0.64190218  0.16676541    -0.11900
C4006       C  0.99041302  0.65749118  0.17096244     0.05100
C4007       C  0.96379527  0.63999548  0.17501365    -0.07200
C4008       C  0.96534665  0.60788369  0.17472928    -0.08000
C4009       C  0.99293219  0.59231027  0.17035966    -0.02500
C4010       C  0.51954403  0.60982854  0.16628192     0.04300
N4011       N  0.54811834  0.59565622  0.16095823     0.66800
H4012       H  0.53882071  0.65470739  0.16341335     0.15700
H4013       H  0.94454027  0.59504414  0.17793774     0.15400
N4014       N  0.93496478  0.65426925  0.17951137     0.74500
O4015       O  0.55408576  0.59063955  0.14231267    -0.38900
O4016       O  0.56964014  0.59488468  0.17399424    -0.38900
O4017       O  0.91458307  0.65576006  0.16571050    -0.39600
O4018       O  0.92754011  0.65885316  0.19796587    -0.39600
C4019       C  0.51445915  0.51178297  0.24006324    -0.11900
C4020       C  0.49399851  0.99563149  0.22869490     0.05100
C4021       C  0.97530707  0.97441415  0.23923701    -0.07200
C4022       C  0.97728881  0.97227888  0.26055411    -0.08000
C4023       C  0.49707287  0.99157730  0.27170595    -0.02500
C4024       C  0.51620619  0.50983163  0.26139458     0.04300
N4025       N  0.53706002  0.52946645  0.27207918     0.66800
H4026       H  0.52797770  0.52903009  0.23216950     0.15700
H4027       H  0.96284414  0.95585791  0.26848710     0.15400
N4028       N  0.95533169  0.95397827  0.22845843     0.74500
O4029       O  0.56528665  0.52266537  0.27221780    -0.38900
O4030       O  0.52890380  0.55654931  0.27633610    -0.38900
O4031       O  0.96328278  0.92630575  0.22624122    -0.39600
O4032       O  0.92755104  0.96145353  0.22575067    -0.39600
loop_ 
_geom_bond_atom_site_label_1 
_geom_bond_atom_site_label_2 
_geom_bond_distance 
_geom_bond_site_symmetry_2 
_ccdc_geom_bond_type 
O1            V9   1.899   1_545  S
O1         C2027   1.264   1_455  A
O2         V1017   1.898       .  S
O2         C2028   1.266   1_455  A
O3            V9   1.895       .  S
O3           C13   1.265   1_465  A
O4         V1017   1.891       .  S
O4           C14   1.262   1_455  A
O5         V1018   1.893   1_565  S
O5         C3038   1.262       .  A
O6           V10   1.900       .  S
O6         C3037   1.264       .  A
O7           V10   1.896       .  S
O7           C12   1.263       .  A
O8         V1018   1.898       .  S
O8           C11   1.266       .  A
V9         O1010   1.896       .  S
V9         O1012   1.896       .  S
V9         V3034   2.085   1_465  T
V10        O1013   1.897       .  S
V10        O1016   1.900       .  S
V10        V3033   2.085       .  T
C11        O2017   1.264       .  A
C11         C985   1.486       .  S
C12        O2018   1.266       .  A
C12         C968   1.482       .  S
C13        O3030   1.263       .  A
C13         C954   1.482       .  S
C14        O3029   1.263       .  A
C14         C996   1.465       .  S
O15          V23   1.902       .  S
O15        C2041   1.264       .  A
O16          V23   1.901       .  S
O16        C2042   1.265       .  A
O17          V23   1.904       .  S
O17          C27   1.265       .  A
O18          V23   1.895       .  S
O18          C28   1.265       .  A
O19          V24   1.898       .  S
O19        C2044   1.263   1_455  A
O20          V24   1.892       .  S
O20        C2043   1.264   1_455  A
O21          V24   1.901       .  S
O21          C26   1.265   1_455  A
O22          V24   1.901       .  S
O22          C25   1.265   1_455  A
V23        V2040   2.085       .  T
V24        V2039   2.085   1_455  T
C25        O2031   1.264       .  A
C25         C943   1.480       .  S
C26        O2032   1.265       .  A
C26         C926   1.485       .  S
C27        O2036   1.264       .  A
C27         C982   1.486       .  S
C28        O2035   1.263       .  A
C28         C971   1.482       .  S
O29          V37   1.890       .  S
O29          C39   1.261       .  A
O30        V1045   1.898       .  S
O30        C1048   1.263       .  A
O31        V1045   1.905       .  S
O31          C41   1.267       .  A
O32          V37   1.896       .  S
O32          C42   1.266       .  A
O33          V38   1.900       .  S
O33          C42   1.264       .  A
O34        V1046   1.892       .  S
O34          C41   1.262       .  A
O35          V38   1.898       .  S
O35          C40   1.267       .  A
O36        V1046   1.898       .  S
O36        C1047   1.263       .  A
V37        O1038   1.895       .  S
V37        O1039   1.901       .  S
V37          V38   2.086       .  T
V38        O1042   1.893       .  S
V38        O1044   1.900       .  S
C39        O1044   1.264       .  A
C39         C912   1.464       .  S
C40        O1038   1.262       .  A
C40         C873   1.481       .  S
C41         C898   1.484       .  S
C42         C884   1.485       .  S
O43          V51   1.901       .  S
O43          C53   1.267       .  A
O44          V51   1.900       .  S
O44          C54   1.266       .  A
O45          V51   1.896       .  S
O45          C55   1.263       .  A
O46          V51   1.895       .  S
O46          C56   1.263       .  A
O47          V52   1.901       .  S
O47          C56   1.266       .  A
O48          V52   1.901       .  S
O48          C55   1.267       .  A
O49          V52   1.893       .  S
O49          C54   1.263       .  A
O50          V52   1.897       .  S
O50          C53   1.262       .  A
V51          V52   2.084       .  T
C53         C901   1.486       .  S
C54         C887   1.484       .  S
C55         C842   1.486       .  S
C56         C856   1.478       .  S
O57          V65   1.898   1_455  S
O57        C1075   1.264   1_545  A
O58        V2081   1.900       .  S
O58        C1076   1.266   1_545  A
O59          V65   1.891       .  S
O59        C1077   1.264   1_545  A
O60        V2081   1.893       .  S
O60        C3094   1.261   1_545  A
O61        V2082   1.900       .  S
O61          C70   1.265       .  A
O62          V66   1.904       .  S
O62        C2085   1.265       .  A
O63          V66   1.903       .  S
O63          C68   1.265       .  A
O64        V2082   1.899   1_455  S
O64          C67   1.267       .  A
V65        O2074   1.899       .  S
V65        O2076   1.892       .  S
V65        V3090   2.086   1_545  T
V66        O2077   1.899       .  S
V66        O2080   1.899       .  S
V66        V3089   2.085       .  T
C67        O1065   1.261       .  A
C67         C831   1.479       .  S
C68        O1066   1.264       .  A
C68         C814   1.481       .  S
C69        O1067   1.264       .  A
C69        O2078   1.265       .  A
C69         C800   1.483       .  S
C70        O3084   1.261       .  A
C70         C999   1.468       .  S
O71          V79   1.899       .  S
O71          C81   1.264       .  A
O72        V2095   1.895       .  S
O72          C82   1.266       .  A
O73          V79   1.900       .  S
O73          C83   1.264       .  A
O74        V2095   1.896       .  S
O74        C2100   1.263       .  A
O75        V2096   1.906       .  S
O75          C84   1.265       .  A
O76          V80   1.903       .  S
O76        C2099   1.267       .  A
O77          V80   1.896       .  S
O77          C82   1.263       .  A
O78        V2096   1.889       .  S
O78          C81   1.264       .  A
V79        O2088   1.895   1_455  S
V79        O2090   1.897       .  S
V79        V2096   2.084       .  T
V80        O2091   1.906       .  S
V80        O2094   1.889       .  S
V80        V2095   2.084       .  T
C81         C786   1.480       .  S
C82         C772   1.482       .  S
C83        O2092   1.267       .  A
C83         C758   1.484       .  S
C84        O2090   1.264       .  A
C84         C940   1.475   1_455  S
O85          V93   1.902       .  S
O85          C95   1.265       .  A
O86          V93   1.900       .  S
O86          C96   1.266       .  A
O87          V93   1.889       .  S
O87          C97   1.261       .  A
O88          V93   1.886       .  S
O88          C98   1.262       .  A
O89          V94   1.897       .  S
O89        C1106   1.263   1_545  A
O90          V94   1.893       .  S
O90        C1105   1.264   1_545  A
O91          V94   1.898       .  S
O91        C1104   1.264   1_545  A
O92          V94   1.891       .  S
O92        C1103   1.264   1_545  A
V93        V1102   2.085       .  T
V94        V1101   2.085   1_545  T
C95        O1100   1.263       .  A
C95         C915   1.476       .  S
C96        O1099   1.263       .  A
C96         C747   1.486       .  S
C97        O1098   1.266       .  A
C97         C828   1.479       .  S
C98        O1097   1.266       .  A
C98         C817   1.481       .  S
O99         V107   1.897       .  S
O99         C109   1.264       .  A
O100        V107   1.899       .  S
O100        C110   1.264       .  A
O101        V107   1.895       .  S
O101        C111   1.263       .  A
O102        V107   1.888       .  S
O102        C112   1.263       .  A
O103        V108   1.902       .  S
O103        C112   1.265       .  A
O104        V108   1.895       .  S
O104        C111   1.265       .  A
O105        V108   1.896       .  S
O105        C110   1.265       .  A
O106        V108   1.899       .  S
O106        C109   1.262       .  A
V107        V108   2.086       .  T
C109        C859   1.467       .  S
C110        C730   1.481       .  S
C111        C775   1.482       .  S
C112        C789   1.482       .  S
O113        V121   1.895       .  S
O113        C123   1.264       .  A
O114       V2137   1.891       .  S
O114       C2140   1.264       .  A
O115       V2137   1.887       .  S
O115        C125   1.263       .  A
O116        V121   1.888   1_455  S
O116        C126   1.263       .  A
O117        V122   1.901   1_455  S
O117       C1134   1.265   1_545  A
O118       V2138   1.900       .  S
O118       C1133   1.265   1_545  A
O119        V122   1.891       .  S
O119       C1132   1.262   1_545  A
O120       V2138   1.892       .  S
O120       C3147   1.262   1_545  A
V121       O2130   1.891       .  S
V121       O2131   1.887       .  S
V121       V1130   2.084       .  T
V122       O2134   1.900       .  S
V122       O2136   1.891       .  S
V122       V1129   2.085   1_545  T
C123       O3144   1.265       .  A
C123        C803   1.484       .  S
C124       O2130   1.264       .  A
C124       O1127   1.264       .  A
C124        C716   1.484       .  S
C125       O1126   1.265       .  A
C125        C691   1.479       .  S
C126       O1125   1.265       .  A
C126        C702   1.481       .  S
O127        V135   1.897       .  S
O127        C137   1.264       .  A
O128       V2151   1.894       .  S
O128        C138   1.263       .  A
O129        V135   1.908       .  S
O129       C2155   1.266       .  A
O130       V2151   1.910       .  S
O130        C140   1.267       .  A
O131       V2152   1.889       .  S
O131       C2156   1.262       .  A
O132        V136   1.887       .  S
O132        C139   1.262       .  A
O133        V136   1.894       .  S
O133        C138   1.263       .  A
O134       V2152   1.895       .  S
O134        C137   1.265       .  A
V135       O2144   1.894       .  S
V135       O2146   1.910       .  S
V135       V2152   2.085       .  T
V136       O2147   1.889       .  S
V136       O2150   1.895   1_455  S
V136       V2151   2.086       .  T
C137        C649   1.484       .  S
C138        C663   1.472       .  S
C139       O2145   1.266       .  A
C139        C761   1.480       .  S
C140       O2147   1.262       .  A
C140        C677   1.485       .  S
O141        V149   1.888       .  S
O141       C1159   1.263       .  A
O142        V149   1.892   1_545  S
O142       C1160   1.262   1_545  A
O143        V149   1.892   1_545  S
O143       C1161   1.264   1_545  A
O144        V149   1.891       .  S
O144       C1162   1.264       .  A
O145        V150   1.899       .  S
O145        C154   1.264       .  A
O146        V150   1.900       .  S
O146        C153   1.264       .  A
O147        V150   1.907       .  S
O147        C152   1.268       .  A
O148        V150   1.909       .  S
O148        C151   1.266       .  A
V149       V1158   2.084       .  T
V150       V1157   2.084       .  T
C151       O1149   1.264       .  A
C151        C744   1.488       .  S
C152       O1150   1.263       .  A
C152        C632   1.489       .  S
C153       O1151   1.263       .  A
C153        C688   1.480       .  S
C154       O1152   1.263       .  A
C154        C705   1.481       .  S
O155        V163   1.898       .  S
O155        C165   1.266       .  A
O156        V163   1.907       .  S
O156        C166   1.265       .  A
O157        V163   1.893       .  S
O157        C167   1.264       .  A
O158        V163   1.895       .  S
O158        C168   1.263       .  A
O159        V164   1.899       .  S
O159        C168   1.265       .  A
O160        V164   1.902       .  S
O160        C167   1.265       .  A
O161        V164   1.889       .  S
O161        C166   1.264       .  A
O162        V164   1.898       .  S
O162        C165   1.263       .  A
V163        V164   2.086       .  T
C165        C733   1.481       .  S
C166        C618   1.478       .  S
C167        C646   1.484       .  S
C168        C660   1.476       .  S
O169        V177   1.891   1_546  S
O169       C2195   1.264       .  A
O170       V1185   1.893       .  S
O170       C2196   1.264       .  A
O171        V177   1.899       .  S
O171       C2197   1.266       .  A
O172       V1185   1.902   1_556  S
O172       C3206   1.264       .  A
O173       V1186   1.893   1_556  S
O173        C182   1.265   1_455  A
O174        V178   1.898       .  S
O174       C1189   1.263   1_455  A
O175        V178   1.904       .  S
O175        C180   1.266   1_455  A
O176       V1186   1.908   1_546  S
O176        C179   1.266   1_455  A
V177       O1178   1.894       .  S
V177       O1180   1.904   1_554  S
V177       V3202   2.084       .  T
V178       O1181   1.897   1_554  S
V178       O1184   1.906   1_554  S
V178       V3201   2.084   1_455  T
C179       O2185   1.264       .  A
C179        C593   1.488       .  S
C180       O2186   1.264       .  A
C180        C576   1.485       .  S
C181       O2187   1.266       .  A
C181       O1182   1.262   1_655  A
C181        C957   1.483   1_565  S
C182       O3196   1.265       .  A
C182        C604   1.485       .  S
O183        V191   1.902       .  S
O183       C2209   1.264       .  A
O184        V191   1.903       .  S
O184       C2210   1.265       .  A
O185        V191   1.912       .  S
O185       C2211   1.267       .  A
O186        V191   1.908   1_556  S
O186       C2212   1.268       .  A
O187        V192   1.893   1_556  S
O187        C196   1.262   1_455  A
O188        V192   1.888       .  S
O188        C195   1.263   1_455  A
O189        V192   1.896       .  S
O189        C194   1.265   1_455  A
O190        V192   1.895       .  S
O190        C193   1.265   1_455  A
V191       V2208   2.084       .  T
V192       V2207   2.084   1_455  T
C193       O2199   1.264       .  A
C193        C579   1.486       .  S
C194       O2200   1.265       .  A
C194        C590   1.488       .  S
C195       O2201   1.267       .  A
C195        C929   1.484       .  S
C196       O2202   1.268       .  A
C196        C562   1.486       .  S
O197        V205   1.902   1_554  S
O197        C207   1.266       .  A
O198       V1213   1.897       .  S
O198       C1216   1.265       .  A
O199       V1213   1.894   1_554  S
O199        C209   1.263   1_554  A
O200        V205   1.899       .  S
O200        C210   1.263       .  A
O201        V206   1.901       .  S
O201        C210   1.266       .  A
O202       V1214   1.899       .  S
O202        C209   1.266       .  A
O203        V206   1.890       .  S
O203        C208   1.262       .  A
O204       V1214   1.897   1_554  S
O204       C1215   1.263       .  A
V205       O1206   1.900       .  S
V205       O1207   1.896       .  S
V205        V206   2.084       .  T
V206       O1210   1.897       .  S
V206       O1212   1.890   1_556  S
C207       O1212   1.262       .  A
C207        C870   1.481       .  S
C208       O1206   1.266       .  A
C208        C548   1.483       .  S
C209        C537   1.484       .  S
C210        C523   1.483       .  S
O211        V219   1.900   1_554  S
O211        C221   1.267       .  A
O212        V219   1.907       .  S
O212        C222   1.266       .  A
O213        V219   1.898       .  S
O213        C223   1.263       .  A
O214        V219   1.900       .  S
O214        C224   1.264       .  A
O215        V220   1.899       .  S
O215        C224   1.265       .  A
O216        V220   1.895       .  S
O216        C223   1.266       .  A
O217        V220   1.897       .  S
O217        C222   1.264       .  A
O218        V220   1.898   1_554  S
O218        C221   1.263       .  A
V219        V220   2.085       .  T
C221        C845   1.487       .  S
C222        C506   1.486       .  S
C223        C534   1.484       .  S
C224        C520   1.483       .  S
O225       V1241   1.903       .  S
O225       C1243   1.266   1_455  A
O226        V233   1.904       .  S
O226        C236   1.265   1_455  A
O227        V233   1.898       .  S
O227        C237   1.263   1_455  A
O228       V1241   1.902   1_545  S
O228        C238   1.267   1_455  A
O229       V1242   1.896   1_545  S
O229       C2254   1.263       .  A
O230        V234   1.892       .  S
O230       C2253   1.264       .  A
O231       V1242   1.898       .  S
O231       C3260   1.265       .  A
O232        V234   1.899       .  S
O232       C2251   1.264       .  A
V233       O1233   1.905       .  S
V233       O1236   1.900       .  S
V233       V2250   2.084   1_455  T
V234       O1237   1.898       .  S
V234       O1239   1.900       .  S
V234       V2249   2.084       .  T
C235       O1233   1.266   1_655  A
C235       O2248   1.264       .  A
C235        C492   1.491       .  S
C236       O3255   1.265       .  A
C236        C607   1.483       .  S
C237       O2246   1.264       .  A
C237        C464   1.479       .  S
C238       O2245   1.263       .  A
C238        C478   1.487       .  S
O239        V247   1.901       .  S
O239        C249   1.266   1_455  A
O240        V247   1.899       .  S
O240        C250   1.266   1_455  A
O241        V247   1.900       .  S
O241        C251   1.264   1_455  A
O242        V247   1.892       .  S
O242        C252   1.264   1_455  A
O243        V248   1.898       .  S
O243       C2268   1.264       .  A
O244        V248   1.896       .  S
O244       C2267   1.266       .  A
O245        V248   1.900       .  S
O245       C2266   1.264       .  A
O246        V248   1.900       .  S
O246       C2265   1.264       .  A
V247       V2264   2.084   1_455  T
V248       V2263   2.084       .  T
C249       O2262   1.264       .  A
C249        C453   1.483       .  S
C250       O2261   1.264       .  A
C250        C565   1.486       .  S
C251       O2260   1.266       .  A
C251        C481   1.486       .  S
C252       O2259   1.264       .  A
C252        C467   1.480       .  S
O253        V261   1.902       .  S
O253        C263   1.264       .  A
O254       V1269   1.894       .  S
O254        C264   1.265       .  A
O255        V261   1.893       .  S
O255        C265   1.262       .  A
O256       V1269   1.889       .  S
O256       C1274   1.263       .  A
O257       V1270   1.904       .  S
O257        C266   1.265       .  A
O258        V262   1.907       .  S
O258       C1273   1.266       .  A
O259        V262   1.904       .  S
O259        C264   1.265       .  A
O260       V1270   1.892       .  S
O260        C263   1.265       .  A
V261       O1262   1.893       .  S
V261       O1264   1.889       .  S
V261       V1270   2.085       .  T
V262       O1265   1.906       .  S
V262       O1268   1.896   1_545  S
V262       V1269   2.085       .  T
C263        C408   1.483       .  S
C264        C422   1.485       .  S
C265       O1266   1.265       .  A
C265        C436   1.470       .  S
C266       O1264   1.264       .  A
C266        C551   1.483       .  S
O267        V275   1.903       .  S
O267        C277   1.264       .  A
O268        V275   1.901       .  S
O268        C278   1.266       .  A
O269        V275   1.905       .  S
O269        C279   1.267       .  A
O270        V275   1.900       .  S
O270        C280   1.264       .  A
O271        V276   1.896       .  S
O271        C280   1.265       .  A
O272        V276   1.892       .  S
O272        C279   1.263       .  A
O273        V276   1.903       .  S
O273        C278   1.265       .  A
O274        V276   1.898       .  S
O274        C277   1.264       .  A
V275        V276   2.085       .  T
C277        C394   1.475       .  S
C278        C509   1.486       .  S
C279        C411   1.485       .  S
C280        C425   1.484       .  S
O281        V289   1.886       .  S
O281       C1299   1.263   1_545  A
O282       V2305   1.891   1_455  S
O282       C1300   1.264   1_545  A
O283        V289   1.892       .  S
O283       C3317   1.264   1_545  A
O284       V2305   1.894       .  S
O284       C1302   1.262   1_545  A
O285       V2306   1.902       .  S
O285       C2310   1.264       .  A
O286        V290   1.901       .  S
O286        C293   1.265       .  A
O287        V290   1.899   1_455  S
O287        C292   1.264       .  A
O288       V2306   1.900       .  S
O288        C291   1.264       .  A
V289       O2298   1.891       .  S
V289       O2300   1.894       .  S
V289       V3314   2.085   1_545  T
V290       O2301   1.902       .  S
V290       O2304   1.900       .  S
V290       V3313   2.086       .  T
C291       O1289   1.263       .  A
C291        C369   1.480       .  S
C292       O1290   1.263       .  A
C292        C380   1.480       .  S
C293       O3307   1.264       .  A
C293        C719   1.485       .  S
C294       O1292   1.262       .  A
C294       O2301   1.264       .  A
C294        C495   1.465       .  S
O295       V2319   1.891       .  S
O295       C2321   1.261       .  A
O296        V303   1.886       .  S
O296        C306   1.263       .  A
O297        V303   1.902       .  S
O297        C307   1.267       .  A
O298       V2319   1.901       .  S
O298        C308   1.265       .  A
O299       V2320   1.897       .  S
O299        C308   1.264       .  A
O300        V304   1.894       .  S
O300        C307   1.263       .  A
O301       V2320   1.914       .  S
O301       C2322   1.268       .  A
O302        V304   1.909       .  S
O302        C305   1.266       .  A
V303       O2311   1.891       .  S
V303       O2314   1.901   1_455  S
V303        V304   2.083       .  T
V304       O2315   1.897   1_455  S
V304       O2317   1.915       .  S
C305       O2311   1.261       .  A
C305        C450   1.470       .  S
C306       O2317   1.268       .  A
C306        C674   1.487       .  S
C307        C352   1.485       .  S
C308        C338   1.477       .  S
O309        V317   1.899       .  S
O309       C1327   1.263   1_545  A
O310        V317   1.899       .  S
O310       C1328   1.267   1_545  A
O311        V317   1.899       .  S
O311       C1329   1.264   1_545  A
O312        V317   1.901       .  S
O312       C1330   1.265   1_545  A
O313        V318   1.888       .  S
O313        C322   1.262       .  A
O314        V318   1.889       .  S
O314        C321   1.263       .  A
O315        V318   1.907       .  S
O315        C320   1.265       .  A
O316        V318   1.904       .  S
O316        C319   1.266       .  A
V317       V1326   2.085   1_545  T
V318       V1325   2.085       .  T
C319       O1317   1.263       .  A
C319        C439   1.481       .  S
C320       O1318   1.266       .  A
C320        C635   1.490       .  S
C321       O1319   1.264       .  A
C321        C383   1.479       .  S
C322       O1320   1.265       .  A
C322        C366   1.481       .  S
O323        V331   1.899       .  S
O323        C333   1.263       .  A
O324        V331   1.893       .  S
O324        C334   1.262       .  A
O325        V331   1.901       .  S
O325        C335   1.266       .  A
O326        V331   1.906       .  S
O326        C336   1.266       .  A
O327        V332   1.892       .  S
O327        C336   1.261       .  A
O328        V332   1.896       .  S
O328        C335   1.263       .  A
O329        V332   1.902       .  S
O329        C334   1.267       .  A
O330        V332   1.900       .  S
O330        C333   1.265       .  A
V331        V332   2.087       .  T
C333        C341   1.476       .  S
C334        C355   1.485       .  S
C335        C621   1.477       .  S
C336        C397   1.473       .  S
C337        C338   1.404       .  A
C337        C342   1.401       .  A
C337        H344   1.087       .  S
C338        C339   1.411       .  A
C339        C340   1.398       .  A
C339        N346   1.429       .  S
C340        C341   1.402       .  A
C340        H345   1.087       .  S
C341        C342   1.411       .  A
C342        N343   1.429       .  S
N343        O347   1.262       .  A
N343        O348   1.262       .  A
N346        O350   1.262       .  A
N346        O349   1.262       .  A
C351        C352   1.404       .  A
C351        C356   1.399       .  A
C351        H358   1.088       .  S
C352        C353   1.415       .  A
C353        C354   1.398       .  A
C353        N360   1.429       .  S
C354        C355   1.403       .  A
C354        H359   1.088       .  S
C355        C356   1.416       .  A
C356        N357   1.429       .  S
N357        O361   1.262       .  A
N357        O362   1.262       .  A
N360        O364   1.262       .  A
N360        O363   1.262       .  A
C365        C366   1.407       .  A
C365        C370   1.398       .  A
C365        H372   1.086       .  S
C366       C1375   1.411       .  A
C367        C368   1.396       .  A
C367       C1374   1.412   1_545  A
C367        N374   1.429       .  S
C368       C1377   1.406   1_545  A
C368        H373   1.086       .  S
C369        C370   1.412       .  A
C369       C1376   1.405       .  A
C370        N371   1.429       .  S
N371        O375   1.262       .  A
N371        O376   1.262       .  A
N374        O378   1.262       .  A
N374        O377   1.262       .  A
C379        C384   1.397       .  A
C379       C1388   1.405   1_545  A
C379        H386   1.087       .  S
C380        C381   1.411       .  A
C380       C1387   1.405       .  A
C381        C382   1.396       .  A
C381        N388   1.429       .  S
C382        C383   1.404       .  A
C382        H387   1.087       .  S
C383       C1392   1.412       .  A
C384       C1391   1.412   1_545  A
C384        N385   1.429       .  S
N385        O389   1.262       .  A
N385        O390   1.261       .  A
N388       O1400   1.262       .  A
N388        O391   1.262       .  A
O392       N1396   1.262       .  A
C393        C394   1.401       .  A
C393        C398   1.398       .  A
C393        H400   1.088       .  S
C394        C395   1.411       .  A
C395        C396   1.401       .  A
C395        N402   1.427       .  S
C396        C397   1.401       .  A
C396        H401   1.088       .  S
C397        C398   1.411       .  A
C398        N399   1.429       .  S
N399        O403   1.262       .  A
N399        O404   1.262       .  A
N402        O406   1.261       .  A
N402        O405   1.262       .  A
C407        C408   1.402       .  A
C407        C412   1.394       .  A
C407        H414   1.087       .  S
C408        C409   1.415       .  A
C409        C410   1.403       .  A
C409        N416   1.429       .  S
C410        C411   1.406       .  A
C410        H415   1.087       .  S
C411        C412   1.414       .  A
C412        N413   1.429       .  S
N413        O417   1.262       .  A
N413        O418   1.262       .  A
N416        O420   1.262       .  A
N416        O419   1.262       .  A
C421        C422   1.405       .  A
C421        C426   1.397       .  A
C421        H428   1.087       .  S
C422        C423   1.414       .  A
C423        C424   1.400       .  A
C423        N430   1.429       .  S
C424        C425   1.406       .  A
C424        H429   1.088       .  S
C425        C426   1.413       .  A
C426        N427   1.429       .  S
N427        O431   1.261       .  A
N427        O432   1.262       .  A
N430        O434   1.262       .  A
N430        O433   1.262       .  A
C435        C440   1.398       .  A
C435       C1444   1.404       .  A
C435        H442   1.087       .  S
C436        C437   1.409       .  A
C436       C1443   1.398       .  A
C437        C438   1.401       .  A
C437        N444   1.429       .  S
C438        C439   1.405       .  A
C438        H443   1.087       .  S
C439       C1448   1.414       .  A
C440       C1447   1.407   1_545  A
C440        N441   1.427       .  S
N441        O445   1.262       .  A
N441        O446   1.262       .  A
N444        O448   1.261       .  A
N444        O447   1.262       .  A
C449        C454   1.399       .  A
C449       C2466   1.400       .  A
C449        H456   1.087       .  S
C450        C451   1.407       .  A
C450       C2465   1.400   1_455  A
C451        C452   1.401       .  A
C451        N458   1.429       .  S
C452        C453   1.407   1_455  A
C452        H457   1.087       .  S
C453       C2470   1.414       .  A
C454       C2469   1.414       .  A
C454        N455   1.429       .  S
N455        O459   1.262       .  A
N455        O460   1.262       .  A
N458        O462   1.262       .  A
N458        O461   1.262       .  A
C463        C468   1.396       .  A
C463       C2480   1.404       .  A
C463        H470   1.088       .  S
C464        C465   1.413   1_655  A
C464       C2479   1.404       .  A
C465        C466   1.397       .  A
C465        N472   1.429       .  S
C466        C467   1.405   1_455  A
C466        H471   1.088       .  S
C467       C2484   1.413       .  A
C468       C2483   1.413       .  A
C468        N469   1.429       .  S
N469        O473   1.262       .  A
N469        O474   1.262       .  A
N472        O476   1.262       .  A
N472        O475   1.261       .  A
C477        C478   1.406   1_455  A
C477        C482   1.401       .  A
C477        H484   1.087       .  S
C478       C2495   1.415       .  A
C479        C480   1.397       .  A
C479       C2494   1.415       .  A
C479        N486   1.429       .  S
C480       C2497   1.403       .  A
C480        H485   1.087       .  S
C481        C482   1.415   1_655  A
C481       C2496   1.403       .  A
C482        N483   1.429       .  S
N483        O487   1.262       .  A
N483        O488   1.262       .  A
N486        O490   1.262       .  A
N486        O489   1.262       .  A
C491        C496   1.402       .  A
C491       C1500   1.408   1_455  A
C491        H498   1.084       .  S
C492       C1499   1.411   1_655  A
C492       C2509   1.419       .  A
C493        C494   1.399       .  A
C493       C2508   1.419       .  A
C493        N500   1.428       .  S
C494       C2511   1.396       .  A
C494        H499   1.084       .  S
C495       C2510   1.396       .  A
C495       C1504   1.404   1_655  A
C496       C1503   1.406   1_455  A
C496        N497   1.430       .  S
N497        O501   1.262       .  A
N497        O502   1.262       .  A
N500        O504   1.262       .  A
N500        O503   1.262       .  A
C505        C506   1.405       .  A
C505        C510   1.401       .  A
C505        H512   1.087       .  S
C506        C507   1.412       .  A
C507        C508   1.401       .  A
C507        N514   1.429       .  S
C508        C509   1.405       .  A
C508        H513   1.087       .  S
C509        C510   1.414       .  A
C510        N511   1.429       .  S
N511        O515   1.262       .  A
N511        O516   1.262       .  A
N514        O518   1.262       .  A
N514        O517   1.262       .  A
C519        C520   1.404       .  A
C519        C524   1.400       .  A
C519        H526   1.087       .  S
C520        C521   1.413   1_556  A
C521        C522   1.400       .  A
C521        N528   1.429       .  S
C522        C523   1.404   1_554  A
C522        H527   1.087       .  S
C523        C524   1.414       .  A
C524        N525   1.429       .  S
N525        O529   1.262       .  A
N525        O530   1.262       .  A
N528        O532   1.262       .  A
N528        O531   1.262       .  A
C533        C534   1.404       .  A
C533        C538   1.396       .  A
C533        H540   1.087       .  S
C534        C535   1.415   1_556  A
C535        C536   1.400       .  A
C535        N542   1.429       .  S
C536        C537   1.405   1_554  A
C536        H541   1.087       .  S
C537        C538   1.415       .  A
C538        N539   1.429       .  S
N539        O543   1.262       .  A
N539        O544   1.262   1_556  A
N542        O546   1.262       .  A
N542        O545   1.262   1_554  A
C547        C548   1.405       .  A
C547        C552   1.401       .  A
C547        H554   1.087       .  S
C548       C1557   1.414       .  A
C549        C550   1.397       .  A
C549       C1556   1.414       .  A
C549        N556   1.429       .  S
C550       C1559   1.405       .  A
C550        H555   1.087       .  S
C551        C552   1.414       .  A
C551       C1558   1.404       .  A
C552        N553   1.429       .  S
N553        O557   1.262       .  A
N553        O558   1.262       .  A
N556       O1568   1.262   1_545  A
N556        O559   1.262       .  A
O560       N1564   1.262       .  A
C561        C566   1.401       .  A
C561       C2578   1.404       .  A
C561        H568   1.087       .  S
C562        C563   1.416   1_655  A
C562       C2577   1.404       .  A
C563        C564   1.398       .  A
C563        N570   1.429       .  S
C564        C565   1.403   1_455  A
C564        H569   1.088       .  S
C565       C2582   1.415       .  A
C566       C2581   1.415       .  A
C566        N567   1.429       .  S
N567        O571   1.262       .  A
N567        O572   1.262       .  A
N570        O574   1.262       .  A
N570        O573   1.262       .  A
C575        C580   1.400   1_554  A
C575       C2592   1.406       .  A
C575        H582   1.087   1_554  S
C576        C577   1.412   1_655  A
C576       C2591   1.406       .  A
C577        C578   1.398       .  A
C577        N584   1.429       .  S
C578        C579   1.406   1_455  A
C578        H583   1.086       .  S
C579       C2596   1.414   1_554  A
C580       C2595   1.414   1_556  A
C580        N581   1.429       .  S
N581        O585   1.262       .  A
N581        O586   1.262   1_556  A
N584       O2604   1.262   1_554  A
N584        O587   1.262       .  A
O588       N2600   1.262   1_556  A
C589        C590   1.407   1_455  A
C589        C594   1.401   1_554  A
C589        H596   1.086       .  S
C590       C2607   1.413   1_554  A
C591        C592   1.398       .  A
C591       C2606   1.413   1_556  A
C591        N598   1.429       .  S
C592       C2609   1.406       .  A
C592        H597   1.086       .  S
C593        C594   1.413   1_655  A
C593       C2608   1.406       .  A
C594        N595   1.429   1_556  S
N595        O599   1.262   1_554  A
N595        O600   1.262       .  A
N598        O602   1.262   1_556  A
N598        O601   1.262       .  A
C603        C608   1.398       .  A
C603       C1612   1.403   1_455  A
C603        H610   1.085       .  S
C604       C1611   1.405   1_655  A
C604       C2621   1.414       .  A
C605        C606   1.401       .  A
C605       C2620   1.414       .  A
C605       N2628   1.429   1_565  S
C606       C3631   1.406       .  A
C606        H611   1.086   1_565  S
C607        C608   1.412   1_655  A
C607       C3630   1.405       .  A
C608       N2625   1.427       .  S
N609       C2624   1.427       .  S
N609       O2629   1.262       .  A
N609        O614   1.261       .  A
N612       C2621   1.429   1_545  S
N612       O2632   1.262   1_545  A
N612        O615   1.262       .  A
O613       N2625   1.262       .  A
O616       N2628   1.262   1_565  A
C617        C618   1.403       .  A
C617        C622   1.394       .  A
C617        H624   1.088       .  S
C618        C619   1.412       .  A
C619        C620   1.403       .  A
C619        N626   1.429       .  S
C620        C621   1.406       .  A
C620        H625   1.088       .  S
C621        C622   1.408       .  A
C622        N623   1.429       .  S
N623        O627   1.262       .  A
N623        O628   1.262       .  A
N626        O630   1.262       .  A
N626        O629   1.262       .  A
C631        C632   1.406       .  A
C631        C636   1.403       .  A
C631        H638   1.086       .  S
C632       C1641   1.416       .  A
C633        C634   1.398       .  A
C633       C1640   1.417   1_545  A
C633        N640   1.429       .  S
C634       C1643   1.404   1_545  A
C634        H639   1.087       .  S
C635        C636   1.415       .  A
C635       C1642   1.404       .  A
C636        N637   1.428       .  S
N637        O641   1.262       .  A
N637        O642   1.262       .  A
N640        O644   1.262       .  A
N640        O643   1.262       .  A
C645        C646   1.405       .  A
C645        C650   1.397       .  A
C645        H652   1.087       .  S
C646        C647   1.413       .  A
C647        C648   1.399       .  A
C647        N654   1.429       .  S
C648        C649   1.405       .  A
C648        H653   1.087       .  S
C649        C650   1.414       .  A
C650        N651   1.429       .  S
N651        O655   1.262       .  A
N651        O656   1.262       .  A
N654        O658   1.262       .  A
N654        O657   1.262       .  A
C659        C660   1.404       .  A
C659        C664   1.399       .  A
C659        H666   1.088       .  S
C660        C661   1.412       .  A
C661        C662   1.397       .  A
C661        N668   1.429       .  S
C662        C663   1.401       .  A
C662        H667   1.089       .  S
C663        C664   1.411       .  A
C664        N665   1.430       .  S
N665        O669   1.262       .  A
N665        O670   1.262       .  A
N668        O672   1.262       .  A
N668        O671   1.262       .  A
C673        C678   1.395       .  A
C673       C2690   1.404       .  A
C673        H680   1.081       .  S
C674        C675   1.413   1_455  A
C674       C2689   1.404       .  A
C675        C676   1.406       .  A
C675        N682   1.427       .  S
C676        C677   1.406   1_655  A
C676        H681   1.081       .  S
C677       C2694   1.413       .  A
C678       C2693   1.413       .  A
C678        N679   1.430       .  S
N679        O683   1.262       .  A
N679        O684   1.262       .  A
N682        O686   1.262       .  A
N682        O685   1.261       .  A
C687        C692   1.397       .  A
C687       C1696   1.404   1_545  A
C687        H694   1.087       .  S
C688        C689   1.412       .  A
C688       C1695   1.405       .  A
C689        C690   1.397       .  A
C689       N1704   1.429       .  S
C690        C691   1.406       .  A
C690        H695   1.087       .  S
C691       C1700   1.411       .  A
C692       C1699   1.411   1_545  A
C692       N1701   1.429       .  S
N693       C1700   1.429       .  S
N693       O1705   1.262       .  A
N693        O698   1.262       .  A
N696       C1697   1.429       .  S
N696       O1708   1.262       .  A
N696        O699   1.262       .  A
O697       N1701   1.262       .  A
O700       N1704   1.262       .  A
C701        C702   1.406       .  A
C701        C706   1.396       .  A
C701        H708   1.087       .  S
C702       C1711   1.412       .  A
C703        C704   1.396       .  A
C703       C1710   1.412   1_545  A
C703        N710   1.428       .  S
C704       C1713   1.404   1_545  A
C704        H709   1.087       .  S
C705        C706   1.412       .  A
C705       C1712   1.406       .  A
C706        N707   1.429       .  S
N707        O711   1.262       .  A
N707        O712   1.262       .  A
N710        O714   1.262       .  A
N710        O713   1.262       .  A
C715        C720   1.396       .  A
C715       C2732   1.405       .  A
C715        H722   1.086       .  S
C716       C2731   1.405       .  A
C716       C1725   1.413       .  A
C717        C718   1.397       .  A
C717       C1724   1.414   1_545  A
C717        N724   1.429       .  S
C718       C1727   1.404   1_545  A
C718        H723   1.086       .  S
C719       C1726   1.406       .  A
C719       C2736   1.412       .  A
C720       C2735   1.412       .  A
C720        N721   1.428       .  S
N721        O725   1.262       .  A
N721        O726   1.262       .  A
N724        O728   1.262   1_655  A
N724        O727   1.262       .  A
C729        C730   1.404       .  A
C729        C734   1.400       .  A
C729        H736   1.087       .  S
C730        C731   1.412       .  A
C731        C732   1.397       .  A
C731        N738   1.429       .  S
C732        C733   1.403       .  A
C732        H737   1.087       .  S
C733        C734   1.414       .  A
C734        N735   1.429       .  S
N735        O739   1.262       .  A
N735        O740   1.262       .  A
N738        O742   1.262       .  A
N738        O741   1.262       .  A
C743        C748   1.396       .  A
C743       C1752   1.406   1_545  A
C743        H750   1.086       .  S
C744        C745   1.414       .  A
C744       C1751   1.406       .  A
C745        C746   1.401       .  A
C745        N752   1.428       .  S
C746        C747   1.405       .  A
C746        H751   1.086       .  S
C747       C1756   1.414       .  A
C748       C1755   1.413   1_545  A
C748        N749   1.429       .  S
N749        O753   1.262       .  A
N749        O754   1.262       .  A
N752        O756   1.262       .  A
N752        O755   1.262       .  A
C757        C758   1.403   1_655  A
C757        C762   1.399       .  A
C757        H764   1.084       .  S
C758       C2775   1.415       .  A
C759        C760   1.403       .  A
C759       C2774   1.416       .  A
C759        N766   1.429       .  S
C760       C2777   1.403       .  A
C760        H765   1.085       .  S
C761        C762   1.413   1_455  A
C761       C2776   1.403       .  A
C762        N763   1.431       .  S
N763        O767   1.262       .  A
N763        O768   1.262       .  A
N766        O770   1.262       .  A
N766        O769   1.262       .  A
C771        C772   1.404       .  A
C771        C776   1.396       .  A
C771        H778   1.087       .  S
C772        C773   1.414       .  A
C773        C774   1.398       .  A
C773        N780   1.429       .  S
C774        C775   1.404       .  A
C774        H779   1.087       .  S
C775        C776   1.414       .  A
C776        N777   1.429       .  S
N777        O781   1.262       .  A
N777        O782   1.262       .  A
N780        O784   1.262       .  A
N780        O783   1.262       .  A
C785        C786   1.405       .  A
C785        C790   1.397       .  A
C785        H792   1.086       .  S
C786        C787   1.412       .  A
C787        C788   1.397       .  A
C787        N794   1.429       .  S
C788        C789   1.406       .  A
C788        H793   1.086       .  S
C789        C790   1.412       .  A
C790        N791   1.429       .  S
N791        O795   1.262       .  A
N791        O796   1.262       .  A
N794        O798   1.262       .  A
N794        O797   1.262       .  A
C799        C804   1.394       .  A
C799       C3824   1.402   1_545  A
C799        H806   1.086       .  S
C800        C801   1.413       .  A
C800       C3823   1.404       .  A
C801        C802   1.401       .  A
C801        N808   1.429       .  S
C802        C803   1.407       .  A
C802        H807   1.086       .  S
C803       C3828   1.412       .  A
C804       C3827   1.412   1_545  A
C804        N805   1.428       .  S
N805        O809   1.262       .  A
N805        O810   1.262       .  A
N808        O812   1.262       .  A
N808        O811   1.261   1_655  A
C813        C818   1.399       .  A
C813       C1822   1.404   1_545  A
C813        H820   1.087       .  S
C814        C815   1.412       .  A
C814       C1821   1.406       .  A
C815        C816   1.398       .  A
C815        N822   1.429       .  S
C816        C817   1.406       .  A
C816        H821   1.087       .  S
C817       C1826   1.411       .  A
C818       C1825   1.412   1_545  A
C818        N819   1.429       .  S
N819        O823   1.262       .  A
N819        O824   1.262       .  A
N822        O826   1.262       .  A
N822        O825   1.262       .  A
C827        C832   1.397       .  A
C827       C1836   1.404   1_545  A
C827        H834   1.087       .  S
C828        C829   1.414       .  A
C828       C1835   1.402       .  A
C829        C830   1.396       .  A
C829        N836   1.429       .  S
C830        C831   1.402       .  A
C830        H835   1.087       .  S
C831       C1840   1.416       .  A
C832       C1839   1.414   1_545  A
C832        N833   1.430       .  S
N833        O837   1.262       .  A
N833        O838   1.261       .  A
N836        O840   1.262       .  A
N836        O839   1.262       .  A
C841        C842   1.404       .  A
C841        C846   1.400       .  A
C841        H848   1.087       .  S
C842        C843   1.415       .  A
C843        C844   1.398       .  A
C843        N850   1.429       .  S
C844        C845   1.404       .  A
C844        H849   1.087       .  S
C845        C846   1.416       .  A
C846        N847   1.429       .  S
N847        O851   1.262       .  A
N847        O852   1.262       .  A
N850        O854   1.262       .  A
N850        O853   1.262       .  A
C855        C856   1.405       .  A
C855        C860   1.400       .  A
C855        H862   1.088       .  S
C856        C857   1.414       .  A
C857        C858   1.397       .  A
C857        N864   1.429       .  S
C858        C859   1.398       .  A
C858        H863   1.088       .  S
C859        C860   1.408       .  A
C860        N861   1.429       .  S
N861        O865   1.262       .  A
N861        O866   1.262       .  A
N864        O868   1.262       .  A
N864        O867   1.262       .  A
C869        C874   1.400   1_545  A
C869       C1878   1.404       .  A
C869        H876   1.087   1_545  S
C870        C871   1.414       .  A
C870       C1877   1.403       .  A
C871        C872   1.396       .  A
C871        N878   1.429       .  S
C872        C873   1.402       .  A
C872        H877   1.087       .  S
C873       C1882   1.415       .  A
C874       C1881   1.415   1_565  A
C874        N875   1.429       .  S
N875        O879   1.262       .  A
N875        O880   1.262   1_565  A
N878        O882   1.262       .  A
N878        O881   1.262       .  A
C883        C884   1.404       .  A
C883        C888   1.397       .  A
C883        H890   1.086       .  S
C884        C885   1.415       .  A
C885        C886   1.400       .  A
C885        N892   1.429       .  S
C886        C887   1.405       .  A
C886        H891   1.086       .  S
C887        C888   1.414       .  A
C888        N889   1.429       .  S
N889        O893   1.262       .  A
N889        O894   1.262       .  A
N892        O896   1.262       .  A
N892        O895   1.262       .  A
C897        C898   1.404       .  A
C897        C902   1.402       .  A
C897        H904   1.086       .  S
C898        C899   1.414       .  A
C899        C900   1.397       .  A
C899        N906   1.429       .  S
C900        C901   1.403       .  A
C900        H905   1.086       .  S
C901        C902   1.416       .  A
C902        N903   1.429       .  S
N903        O907   1.262       .  A
N903        O908   1.262       .  A
N906        O910   1.262       .  A
N906        O909   1.261       .  A
C911        C912   1.400       .  A
C911        C916   1.398       .  A
C911        H918   1.087       .  S
C912       C1921   1.405       .  A
C913        C914   1.396       .  A
C913       C1920   1.405   1_545  A
C913        N920   1.428       .  S
C914       C1923   1.404   1_545  A
C914        H919   1.087       .  S
C915        C916   1.412       .  A
C915       C1922   1.405       .  A
C916        N917   1.428       .  S
N917        O921   1.262       .  A
N917        O922   1.262       .  A
N920        O924   1.262       .  A
N920        O923   1.261       .  A
C925        C930   1.404       .  A
C925       C2942   1.407       .  A
C925        H932   1.087       .  S
C926        C927   1.412   1_655  A
C926       C2941   1.407       .  A
C927        C928   1.396       .  A
C927        N934   1.429       .  S
C928        C929   1.404   1_455  A
C928        H933   1.087       .  S
C929       C2946   1.413       .  A
C930       C2945   1.413       .  A
C930        N931   1.429       .  S
N931        O935   1.262       .  A
N931        O936   1.262       .  A
N934        O938   1.262       .  A
N934       O2953   1.262       .  A
O937       N2950   1.262       .  A
C939        C944   1.400       .  A
C939       C2956   1.402       .  A
C939        H946   1.088       .  S
C940        C941   1.409   1_655  A
C940       C2955   1.402       .  A
C941        C942   1.401       .  A
C941        N948   1.429       .  S
C942        C943   1.404   1_455  A
C942        H947   1.088       .  S
C943       C2960   1.412       .  A
C944       C2959   1.412       .  A
C944        N945   1.429       .  S
N945        O949   1.262       .  A
N945        O950   1.262       .  A
N948        O952   1.262       .  A
N948        O951   1.262       .  A
C953        C958   1.398       .  A
C953       C1962   1.405   1_455  A
C953        H960   1.087       .  S
C954       C1961   1.404   1_655  A
C954       C2971   1.414   1_545  A
C955        C956   1.398       .  A
C955       C2970   1.414   1_565  A
C955        N962   1.429       .  S
C956       C2973   1.404   1_565  A
C956        H961   1.087       .  S
C957       C2972   1.404   1_545  A
C957       C1966   1.415   1_655  A
C958       C1965   1.414   1_455  A
C958        N959   1.429       .  S
N959        O963   1.262       .  A
N959        O964   1.262       .  A
N962        O966   1.262       .  A
N962        O965   1.262   1_565  A
C967        C972   1.399       .  A
C967       C2984   1.404   1_455  A
C967        H974   1.087       .  S
C968        C969   1.414       .  A
C968       C2983   1.404       .  A
C969        C970   1.397       .  A
C969        N976   1.429       .  S
C970        C971   1.403       .  A
C970        H975   1.087       .  S
C971       C2988   1.414       .  A
C972       C2987   1.414   1_455  A
C972        N973   1.429       .  S
N973        O977   1.262       .  A
N973        O978   1.262       .  A
N976        O980   1.261       .  A
N976        O979   1.261       .  A
C981        C986   1.398       .  A
C981       C2998   1.405   1_455  A
C981        H988   1.086       .  S
C982        C983   1.413       .  A
C982       C2997   1.405       .  A
C983        C984   1.399       .  A
C983        N990   1.428       .  S
C984        C985   1.405       .  A
C984        H989   1.086       .  S
C985       C3002   1.414       .  A
C986       C3001   1.415   1_455  A
C986        N987   1.429       .  S
N987        O991   1.262       .  A
N987        O992   1.262       .  A
N990        O994   1.262       .  A
N990        O993   1.262       .  A
C995       C1000   1.398       .  A
C995       C2004   1.399   1_445  A
C995       H1002   1.087       .  S
C996       C2003   1.397   1_655  A
C996       C3013   1.409       .  A
C997        C998   1.397       .  A
C997       C3012   1.409       .  A
C997       N1004   1.426       .  S
C998       C3015   1.399       .  A
C998       H1003   1.087       .  S
C999       C3014   1.399       .  A
C999       C2008   1.411   1_655  A
C1000      C2007   1.412   1_445  A
C1000      N1001   1.427       .  S
N1001      O1005   1.262       .  A
N1001      O1006   1.262       .  A
N1004      O1008   1.262       .  A
N1004      O1007   1.262       .  A
O1009      V1017   1.902       .  S
O1009      C3035   1.265   1_455  A
O1010      C3036   1.265   1_455  A
O1011      V1017   1.891       .  S
O1011      C1021   1.264   1_455  A
O1012      C1022   1.263   1_455  A
O1013      C2030   1.263       .  A
O1014      V1018   1.896       .  S
O1014      C2029   1.263       .  A
O1015      V1018   1.896   1_565  S
O1015      C1020   1.263       .  A
O1016      C1019   1.266       .  A
V1017      V2026   2.085   1_455  T
V1018      V2025   2.085   1_545  T
C1019      O3025   1.265       .  A
C1019      C1993   1.489       .  S
C1020      O3026   1.265       .  A
C1020      C1976   1.482       .  S
C1021      O2022   1.264       .  A
C1021      C1962   1.483       .  S
C1022      O2021   1.262       .  A
C1022      C2004   1.467       .  S
O1023      V1031   1.901       .  S
O1023      C3049   1.264       .  A
O1024      V1031   1.901       .  S
O1024      C3050   1.266       .  A
O1025      V1031   1.906       .  S
O1025      C1035   1.266       .  A
O1026      V1031   1.895       .  S
O1026      C1036   1.265       .  A
O1027      V1032   1.897       .  S
O1027      C3052   1.263   1_455  A
O1028      V1032   1.895       .  S
O1028      C3051   1.265   1_455  A
O1029      V1032   1.904       .  S
O1029      C1034   1.266   1_455  A
O1030      V1032   1.902       .  S
O1030      C1033   1.266   1_455  A
V1031      V3048   2.084       .  T
V1032      V3047   2.084   1_455  T
C1033      O3039   1.264       .  A
C1033      C1951   1.479       .  S
C1034      O3040   1.266       .  A
C1034      C1934   1.491       .  S
C1035      O3044   1.265       .  A
C1035      C1990   1.488       .  S
C1036      O3043   1.263       .  A
C1036      C1979   1.482       .  S
O1037      V1045   1.895   1_565  S
O1037      C1047   1.262   1_565  A
O1039      C1049   1.266       .  A
O1040      V1045   1.899   1_565  S
O1040      C1050   1.266       .  A
O1041      V1046   1.898   1_565  S
O1041      C1050   1.263       .  A
O1042      C1049   1.262       .  A
O1043      V1046   1.898       .  S
O1043      C1048   1.266       .  A
V1045      V1046   2.086       .  T
C1047      C1920   1.466   1_545  S
C1048      C1881   1.484       .  S
C1049      C1906   1.481       .  S
C1050      C1892   1.486       .  S
O1051      V1059   1.902       .  S
O1051      C1061   1.267       .  A
O1052      V1059   1.901       .  S
O1052      C1062   1.266       .  A
O1053      V1059   1.893       .  S
O1053      C1063   1.262       .  A
O1054      V1059   1.893       .  S
O1054      C1064   1.262       .  A
O1055      V1060   1.904       .  S
O1055      C1064   1.267       .  A
O1056      V1060   1.904       .  S
O1056      C1063   1.267       .  A
O1057      V1060   1.893       .  S
O1057      C1062   1.262       .  A
O1058      V1060   1.894       .  S
O1058      C1061   1.262       .  A
V1059      V1060   2.084       .  T
C1061      C1909   1.483       .  S
C1062      C1895   1.485       .  S
C1063      C1850   1.487       .  S
C1064      C1864   1.479       .  S
O1065      V1073   1.890   1_455  S
O1066      V3089   1.888       .  S
O1067      V1073   1.887       .  S
O1068      V3089   1.889       .  S
O1068      C2086   1.261       .  A
O1069      V3090   1.899       .  S
O1069      C1078   1.265       .  A
O1070      V1074   1.904       .  S
O1070      C3093   1.264       .  A
O1071      V1074   1.894       .  S
O1071      C1076   1.262       .  A
O1072      V3090   1.895   1_455  S
O1072      C1075   1.265       .  A
V1073      O3082   1.888       .  S
V1073      O3084   1.889       .  S
V1073      V2082   2.086       .  T
V1074      O3085   1.899       .  S
V1074      O3088   1.895       .  S
V1074      V2081   2.086   1_565  T
C1075      C1839   1.481       .  S
C1076      C1822   1.478       .  S
C1077      O3086   1.264       .  A
C1077      C1808   1.480       .  S
C1078      O2076   1.261   1_565  A
C1078      C2007   1.469       .  S
O1079      V1087   1.896       .  S
O1079      C1089   1.263       .  A
O1080      V3103   1.891       .  S
O1080      C1090   1.264       .  A
O1081      V1087   1.903       .  S
O1081      C1091   1.265       .  A
O1082      V3103   1.901       .  S
O1082      C3108   1.264       .  A
O1083      V3104   1.902       .  S
O1083      C1092   1.264       .  A
O1084      V1088   1.904       .  S
O1084      C3107   1.266       .  A
O1085      V1088   1.900       .  S
O1085      C1090   1.264       .  A
O1086      V3104   1.890       .  S
O1086      C1089   1.264       .  A
V1087      O3096   1.891   1_455  S
V1087      O3098   1.901   1_455  S
V1087      V3104   2.084       .  T
V1088      O3099   1.903       .  S
V1088      O3102   1.890       .  S
V1088      V3103   2.084       .  T
C1089      C1794   1.479       .  S
C1090      C1780   1.482       .  S
C1091      O3100   1.266       .  A
C1091      C1766   1.491       .  S
C1092      O3098   1.265   1_455  A
C1092      C1948   1.476   1_455  S
O1093      V1101   1.902       .  S
O1093      C1103   1.264       .  A
O1094      V1101   1.901       .  S
O1094      C1104   1.266       .  A
O1095      V1101   1.900       .  S
O1095      C1105   1.264       .  A
O1096      V1101   1.892       .  S
O1096      C1106   1.264       .  A
O1097      V1102   1.904       .  S
O1098      V1102   1.900       .  S
O1099      V1102   1.896       .  S
O1100      V1102   1.891       .  S
C1103      C1923   1.476       .  S
C1104      C1755   1.487       .  S
C1105      C1836   1.481       .  S
C1106      C1825   1.475       .  S
O1107      V1115   1.899       .  S
O1107      C1117   1.264       .  A
O1108      V1115   1.904       .  S
O1108      C1118   1.264       .  A
O1109      V1115   1.896       .  S
O1109      C1119   1.264       .  A
O1110      V1115   1.892       .  S
O1110      C1120   1.264       .  A
O1111      V1116   1.898       .  S
O1111      C1120   1.264       .  A
O1112      V1116   1.891       .  S
O1112      C1119   1.264       .  A
O1113      V1116   1.894       .  S
O1113      C1118   1.265       .  A
O1114      V1116   1.898       .  S
O1114      C1117   1.262       .  A
V1115      V1116   2.085       .  T
C1117      C1867   1.468       .  S
C1118      C1738   1.484       .  S
C1119      C1783   1.481       .  S
C1120      C1797   1.481       .  S
O1121      V1129   1.901       .  S
O1121      C1131   1.266       .  A
O1122      V3145   1.899       .  S
O1122      C3148   1.266       .  A
O1123      V3145   1.888       .  S
O1123      C1133   1.262       .  A
O1124      V1129   1.890   1_455  S
O1124      C1134   1.263       .  A
O1125      V1130   1.901   1_455  S
O1126      V3146   1.899       .  S
O1127      V1130   1.901       .  S
O1128      V3146   1.898       .  S
O1128      C2139   1.265       .  A
V1129      O3138   1.899       .  S
V1129      O3139   1.888       .  S
V1130      O3142   1.899       .  S
V1130      O3144   1.898       .  S
C1131      O2136   1.262   1_565  A
C1131      C1811   1.480       .  S
C1132      O3138   1.266       .  A
C1132      C1724   1.482       .  S
C1133      C1699   1.478       .  S
C1134      C1710   1.482       .  S
O1135      V1143   1.893       .  S
O1135      C1145   1.262       .  A
O1136      V3159   1.891       .  S
O1136      C1146   1.262       .  A
O1137      V1143   1.909       .  S
O1137      C3163   1.268       .  A
O1138      V3159   1.908       .  S
O1138      C1148   1.266       .  A
O1139      V3160   1.887       .  S
O1139      C3164   1.261       .  A
O1140      V1144   1.888   1_655  S
O1140      C1147   1.261   1_655  A
O1141      V1144   1.895       .  S
O1141      C1146   1.265       .  A
O1142      V3160   1.898       .  S
O1142      C1145   1.266       .  A
V1143      O3152   1.891       .  S
V1143      O3154   1.908       .  S
V1143      V3160   2.085       .  T
V1144      O3155   1.887       .  S
V1144      O3158   1.898   1_455  S
V1144      V3159   2.085       .  T
C1145      C1657   1.476       .  S
C1146      C1671   1.481       .  S
C1147      O3153   1.268       .  A
C1147      C1769   1.488       .  S
C1148      O3155   1.261       .  A
C1148      C1685   1.475       .  S
O1149      V1157   1.892       .  S
O1150      V1157   1.894       .  S
O1151      V1157   1.888       .  S
O1152      V1157   1.888       .  S
O1153      V1158   1.898       .  S
O1153      C1162   1.264       .  A
O1154      V1158   1.898       .  S
O1154      C1161   1.264       .  A
O1155      V1158   1.912       .  S
O1155      C1160   1.269       .  A
O1156      V1158   1.913       .  S
O1156      C1159   1.267       .  A
C1159      C1752   1.489       .  S
C1160      C1640   1.491       .  S
C1161      C1696   1.478       .  S
C1162      C1713   1.480       .  S
O1163      V1171   1.903       .  S
O1163      C1173   1.266       .  A
O1164      V1171   1.906       .  S
O1164      C1174   1.265       .  A
O1165      V1171   1.896       .  S
O1165      C1175   1.265       .  A
O1166      V1171   1.899       .  S
O1166      C1176   1.265       .  A
O1167      V1172   1.894       .  S
O1167      C1176   1.263       .  A
O1168      V1172   1.895       .  S
O1168      C1175   1.263       .  A
O1169      V1172   1.890       .  S
O1169      C1174   1.264       .  A
O1170      V1172   1.892       .  S
O1170      C1173   1.262       .  A
V1171      V1172   2.085       .  T
C1173      C1741   1.484       .  S
C1174      C1626   1.480       .  S
C1175      C1654   1.477       .  S
C1176      C1668   1.484       .  S
O1177      V1185   1.888       .  S
O1177      C3203   1.263   1_554  A
O1178      C3204   1.263       .  A
O1179      V1185   1.895       .  S
O1179      C3205   1.265       .  A
O1180      C2198   1.265       .  A
O1181      C1190   1.266   1_455  A
O1182      V1186   1.894       .  S
O1183      V1186   1.905       .  S
O1183      C1188   1.266   1_455  A
O1184      C1187   1.266   1_455  A
V1185      V2194   2.084       .  T
V1186      V2193   2.084   1_455  T
C1187      O3193   1.263   1_556  A
C1187      C1601   1.484       .  S
C1188      O3194   1.263       .  A
C1188      C1584   1.485       .  S
C1189      O3195   1.265       .  A
C1189      C1965   1.484       .  S
C1190      O2188   1.264       .  A
C1190      C1612   1.482       .  S
O1191      V1199   1.906       .  S
O1191      C3217   1.265       .  A
O1192      V1199   1.901       .  S
O1192      C3218   1.265       .  A
O1193      V1199   1.913       .  S
O1193      C3219   1.267       .  A
O1194      V1199   1.908   1_556  S
O1194      C3220   1.268       .  A
O1195      V1200   1.894   1_556  S
O1195      C1204   1.262   1_455  A
O1196      V1200   1.891       .  S
O1196      C1203   1.264   1_455  A
O1197      V1200   1.893       .  S
O1197      C1202   1.264   1_455  A
O1198      V1200   1.892       .  S
O1198      C1201   1.264   1_455  A
V1199      V3216   2.084       .  T
V1200      V3215   2.084   1_455  T
C1201      O3207   1.265       .  A
C1201      C1587   1.485       .  S
C1202      O3208   1.265       .  A
C1202      C1598   1.485       .  S
C1203      O3209   1.267       .  A
C1203      C1937   1.491       .  S
C1204      O3210   1.268       .  A
C1204      C1570   1.489       .  S
O1205      V1213   1.899   1_554  S
O1205      C1215   1.266       .  A
O1207      C1217   1.263       .  A
O1208      V1213   1.897   1_565  S
O1208      C1218   1.263       .  A
O1209      V1214   1.901   1_565  S
O1209      C1218   1.266       .  A
O1210      C1217   1.266       .  A
O1211      V1214   1.897       .  S
O1211      C1216   1.263       .  A
V1213      V1214   2.084       .  T
C1215      C1878   1.483       .  S
C1216      C1556   1.484       .  S
C1217      C1545   1.484       .  S
C1218      C1531   1.485       .  S
O1219      V1227   1.902   1_554  S
O1219      C1229   1.267       .  A
O1220      V1227   1.907       .  S
O1220      C1230   1.267       .  A
O1221      V1227   1.892       .  S
O1221      C1231   1.262       .  A
O1222      V1227   1.896       .  S
O1222      C1232   1.263       .  A
O1223      V1228   1.902       .  S
O1223      C1232   1.267       .  A
O1224      V1228   1.900       .  S
O1224      C1231   1.267       .  A
O1225      V1228   1.894       .  S
O1225      C1230   1.263       .  A
O1226      V1228   1.895   1_554  S
O1226      C1229   1.262       .  A
V1227      V1228   2.084       .  T
C1229      C1853   1.486       .  S
C1230      C1514   1.484       .  S
C1231      C1542   1.484       .  S
C1232      C1528   1.484       .  S
O1234      V1241   1.901       .  S
O1234      C1244   1.265   1_455  A
O1235      V1241   1.899       .  S
O1235      C1245   1.264   1_455  A
O1236      C1246   1.267   1_455  A
O1237      C3262   1.263       .  A
O1238      V1242   1.895       .  S
O1238      C3261   1.265       .  A
O1239      C2252   1.265       .  A
O1240      V1242   1.901       .  S
O1240      C3259   1.264       .  A
V1241      V3258   2.084   1_455  T
V1242      V3257   2.084       .  T
C1243      O3256   1.264       .  A
C1243      C1500   1.483       .  S
C1244      O2247   1.265       .  A
C1244      C1615   1.485       .  S
C1245      O3254   1.265       .  A
C1245      C1472   1.483       .  S
C1246      O3253   1.263       .  A
C1246      C1486   1.488       .  S
O1247      V1255   1.896       .  S
O1247      C1257   1.264   1_455  A
O1248      V1255   1.896       .  S
O1248      C1258   1.265   1_455  A
O1249      V1255   1.896       .  S
O1249      C1259   1.263   1_455  A
O1250      V1255   1.891       .  S
O1250      C1260   1.264   1_455  A
O1251      V1256   1.906       .  S
O1251      C3276   1.265       .  A
O1252      V1256   1.902       .  S
O1252      C3275   1.267       .  A
O1253      V1256   1.905       .  S
O1253      C3274   1.265       .  A
O1254      V1256   1.902       .  S
O1254      C3273   1.265       .  A
V1255      V3272   2.084   1_455  T
V1256      V3271   2.084       .  T
C1257      O3270   1.265       .  A
C1257      C1461   1.481       .  S
C1258      O3269   1.265       .  A
C1258      C1573   1.489       .  S
C1259      O3268   1.267       .  A
C1259      C1489   1.487       .  S
C1260      O3267   1.265       .  A
C1260      C1475   1.485       .  S
O1261      V1269   1.899   1_565  S
O1261      C1271   1.264       .  A
O1262      C1272   1.265       .  A
O1263      V1269   1.889       .  S
O1263      C1273   1.262       .  A
O1265      C1274   1.266       .  A
O1266      V1270   1.904       .  S
O1267      V1270   1.906       .  S
O1267      C1272   1.265       .  A
O1268      C1271   1.266       .  A
C1271      C1416   1.486       .  S
C1272      C1430   1.485       .  S
C1273      C1444   1.477       .  S
C1274      C1559   1.485       .  S
O1275      V1283   1.894       .  S
O1275      C1285   1.261       .  A
O1276      V1283   1.890       .  S
O1276      C1286   1.263       .  A
O1277      V1283   1.900       .  S
O1277      C1287   1.266       .  A
O1278      V1283   1.895       .  S
O1278      C1288   1.264       .  A
O1279      V1284   1.901       .  S
O1279      C1288   1.265       .  A
O1280      V1284   1.898       .  S
O1280      C1287   1.263       .  A
O1281      V1284   1.910       .  S
O1281      C1286   1.267       .  A
O1282      V1284   1.905       .  S
O1282      C1285   1.266       .  A
V1283      V1284   2.085       .  T
C1285      C1402   1.472       .  S
C1286      C1517   1.483       .  S
C1287      C1419   1.487       .  S
C1288      C1433   1.485       .  S
O1289      V1297   1.888       .  S
O1290      V3313   1.890   1_455  S
O1291      V1297   1.894       .  S
O1291      C2309   1.264       .  A
O1292      V3313   1.894       .  S
O1293      V3314   1.902       .  S
O1293      C3318   1.265       .  A
O1294      V1298   1.901       .  S
O1294      C1301   1.265       .  A
O1295      V1298   1.899   1_455  S
O1295      C1300   1.264       .  A
O1296      V3314   1.903       .  S
O1296      C1299   1.265       .  A
V1297      O3306   1.890       .  S
V1297      O3308   1.894       .  S
V1297      V2306   2.086       .  T
V1298      O3309   1.902   1_655  S
V1298      O3312   1.903       .  S
V1298      V2305   2.085   1_565  T
C1299      C1377   1.482       .  S
C1300      C1388   1.479       .  S
C1301      O2299   1.264   1_565  A
C1301      C1727   1.484       .  S
C1302      O3309   1.265   1_655  A
C1302      C1503   1.470       .  S
O1303      V3327   1.893       .  S
O1303      C3329   1.262       .  A
O1304      V1311   1.888       .  S
O1304      C1314   1.263       .  A
O1305      V1311   1.897       .  S
O1305      C1315   1.266       .  A
O1306      V3327   1.897       .  S
O1306      C1316   1.264       .  A
O1307      V3328   1.898       .  S
O1307      C1316   1.264       .  A
O1308      V1312   1.898       .  S
O1308      C1315   1.264       .  A
O1309      V3328   1.909       .  S
O1309      C3330   1.266       .  A
O1310      V1312   1.904       .  S
O1310      C1313   1.265       .  A
V1311      O3319   1.893   1_455  S
V1311      O3322   1.897   1_455  S
V1311      V1312   2.083       .  T
V1312      O3323   1.898   1_455  S
V1312      O3325   1.909   1_455  S
C1313      O3319   1.262   1_455  A
C1313      C1458   1.467       .  S
C1314      O3325   1.266   1_455  A
C1314      C1682   1.476       .  S
C1315      C1360   1.486       .  S
C1316      C1346   1.476       .  S
O1317      V1325   1.898       .  S
O1318      V1325   1.896       .  S
O1319      V1325   1.902       .  S
O1320      V1325   1.902       .  S
O1321      V1326   1.888       .  S
O1321      C1330   1.263       .  A
O1322      V1326   1.891       .  S
O1322      C1329   1.264       .  A
O1323      V1326   1.905       .  S
O1323      C1328   1.265       .  A
O1324      V1326   1.901       .  S
O1324      C1327   1.264       .  A
C1327      C1447   1.470       .  S
C1328      C1643   1.491       .  S
C1329      C1391   1.477       .  S
C1330      C1374   1.482       .  S
O1331      V1339   1.899       .  S
O1331      C1341   1.264       .  A
O1332      V1339   1.895       .  S
O1332      C1342   1.263       .  A
O1333      V1339   1.900       .  S
O1333      C1343   1.265       .  A
O1334      V1339   1.905       .  S
O1334      C1344   1.266       .  A
O1335      V1340   1.893       .  S
O1335      C1344   1.262       .  A
O1336      V1340   1.894       .  S
O1336      C1343   1.263       .  A
O1337      V1340   1.900       .  S
O1337      C1342   1.266       .  A
O1338      V1340   1.896       .  S
O1338      C1341   1.264       .  A
V1339      V1340   2.086       .  T
C1341      C1349   1.473       .  S
C1342      C1363   1.486       .  S
C1343      C1629   1.479       .  S
C1344      C1405   1.475       .  S
C1345      C1346   1.404       .  A
C1345      C1350   1.400       .  A
C1345      H1352   1.086       .  S
C1346      C1347   1.411       .  A
C1347      C1348   1.397       .  A
C1347      N1354   1.429       .  S
C1348      C1349   1.402       .  A
C1348      H1353   1.085       .  S
C1349      C1350   1.410       .  A
C1350      N1351   1.429       .  S
N1351      O1355   1.262       .  A
N1351      O1356   1.262       .  A
N1354      O1358   1.262       .  A
N1354      O1357   1.262       .  A
C1359      C1360   1.404       .  A
C1359      C1364   1.398       .  A
C1359      H1366   1.087       .  S
C1360      C1361   1.414       .  A
C1361      C1362   1.399       .  A
C1361      N1368   1.429       .  S
C1362      C1363   1.405       .  A
C1362      H1367   1.087       .  S
C1363      C1364   1.415       .  A
C1364      N1365   1.429       .  S
N1365      O1369   1.262       .  A
N1365      O1370   1.262       .  A
N1368      O1372   1.262       .  A
N1368      O1371   1.262       .  A
C1373      C1374   1.406       .  A
C1373      C1378   1.398       .  A
C1373      H1380   1.086       .  S
C1375      C1376   1.396       .  A
C1375      N1382   1.429       .  S
C1376      H1381   1.086       .  S
C1377      C1378   1.412       .  A
C1378      N1379   1.429       .  S
N1379      O1383   1.262       .  A
N1379      O1384   1.262       .  A
N1382      O1386   1.262       .  A
N1382      O1385   1.262       .  A
C1387      C1392   1.398       .  A
C1387      H1394   1.087       .  S
C1388      C1389   1.412       .  A
C1389      C1390   1.397       .  A
C1389      N1396   1.429       .  S
C1390      C1391   1.404       .  A
C1390      H1395   1.087       .  S
C1392      N1393   1.429       .  S
N1393      O1397   1.262       .  A
N1393      O1398   1.261       .  A
N1396      O1399   1.262       .  A
C1401      C1402   1.399       .  A
C1401      C1406   1.398       .  A
C1401      H1408   1.087       .  S
C1402      C1403   1.412       .  A
C1403      C1404   1.400       .  A
C1403      N1410   1.428       .  S
C1404      C1405   1.401       .  A
C1404      H1409   1.087       .  S
C1405      C1406   1.413       .  A
C1406      N1407   1.428       .  S
N1407      O1411   1.262       .  A
N1407      O1412   1.261       .  A
N1410      O1414   1.262       .  A
N1410      O1413   1.262       .  A
C1415      C1416   1.404       .  A
C1415      C1420   1.398       .  A
C1415      H1422   1.087       .  S
C1416      C1417   1.415       .  A
C1417      C1418   1.399       .  A
C1417      N1424   1.429       .  S
C1418      C1419   1.405       .  A
C1418      H1423   1.087       .  S
C1419      C1420   1.415       .  A
C1420      N1421   1.429       .  S
N1421      O1425   1.262       .  A
N1421      O1426   1.262       .  A
N1424      O1428   1.262       .  A
N1424      O1427   1.262       .  A
C1429      C1430   1.403       .  A
C1429      C1434   1.395       .  A
C1429      H1436   1.088       .  S
C1430      C1431   1.415       .  A
C1431      C1432   1.403       .  A
C1431      N1438   1.429       .  S
C1432      C1433   1.406       .  A
C1432      H1437   1.088       .  S
C1433      C1434   1.413       .  A
C1434      N1435   1.429       .  S
N1435      O1439   1.261       .  A
N1435      O1440   1.262       .  A
N1438      O1442   1.262       .  A
N1438      O1441   1.262       .  A
C1443      C1448   1.398       .  A
C1443      H1450   1.087       .  S
C1444      C1445   1.412   1_545  A
C1445      C1446   1.401       .  A
C1445      N1452   1.429       .  S
C1446      C1447   1.401       .  A
C1446      H1451   1.087       .  S
C1448      N1449   1.427       .  S
N1449      O1453   1.261       .  A
N1449      O1454   1.262       .  A
N1452      O1456   1.262       .  A
N1452      O1455   1.262       .  A
C1457      C3474   1.400       .  A
C1457      C1462   1.399       .  A
C1457      H1464   1.088       .  S
C1458      C3473   1.400   1_455  A
C1458      C1459   1.406       .  A
C1459      C1460   1.399       .  A
C1459      N1466   1.429       .  S
C1460      C1461   1.407   1_455  A
C1460      H1465   1.087       .  S
C1461      C3478   1.414       .  A
C1462      C3477   1.414       .  A
C1462      N1463   1.429       .  S
N1463      O1467   1.262       .  A
N1463      O1468   1.262       .  A
N1466      O1470   1.262       .  A
N1466      O1469   1.262       .  A
C1471      C3488   1.405       .  A
C1471      C1476   1.400       .  A
C1471      H1478   1.087       .  S
C1472      C3487   1.405       .  A
C1472      C1473   1.413   1_655  A
C1473      C1474   1.397       .  A
C1473      N1480   1.429       .  S
C1474      C1475   1.405   1_455  A
C1474      H1479   1.087       .  S
C1475      C3492   1.413       .  A
C1476      C3491   1.413       .  A
C1476      N1477   1.429       .  S
N1477      O1481   1.262       .  A
N1477      O1482   1.262       .  A
N1480      O1484   1.262       .  A
N1480      O1483   1.262       .  A
C1485      C1486   1.404   1_455  A
C1485      C1490   1.399       .  A
C1485      H1492   1.087       .  S
C1486      C3503   1.416       .  A
C1487      C3502   1.416       .  A
C1487      C1488   1.400       .  A
C1487      N1494   1.429       .  S
C1488      C3505   1.404       .  A
C1488      H1493   1.087       .  S
C1489      C3504   1.404       .  A
C1489      C1490   1.416   1_655  A
C1490      N1491   1.429       .  S
N1491      O1495   1.262       .  A
N1491      O1496   1.262       .  A
N1494      O1498   1.262       .  A
N1494      O1497   1.262       .  A
C1499      C1504   1.403       .  A
C1499      H1506   1.083       .  S
C1500      C3517   1.414   1_565  A
C1501      C3516   1.414   1_545  A
C1501      C1502   1.400       .  A
C1501      N1508   1.429       .  S
C1502      C3519   1.400   1_545  A
C1502      H1507   1.085       .  S
C1503      C3518   1.400   1_565  A
C1504      N1505   1.430       .  S
N1505      O1509   1.262       .  A
N1505      O1510   1.262       .  A
N1508      O1512   1.262       .  A
N1508      O1511   1.262       .  A
C1513      C1514   1.407       .  A
C1513      C1518   1.402       .  A
C1513      H1520   1.087       .  S
C1514      C1515   1.411       .  A
C1515      C1516   1.398       .  A
C1515      N1522   1.429       .  S
C1516      C1517   1.405       .  A
C1516      H1521   1.087       .  S
C1517      C1518   1.412       .  A
C1518      N1519   1.429       .  S
N1519      O1523   1.262       .  A
N1519      O1524   1.262       .  A
N1522      O1526   1.262       .  A
N1522      O1525   1.262       .  A
C1527      C1528   1.403       .  A
C1527      C1532   1.400       .  A
C1527      H1534   1.087       .  S
C1528      C1529   1.415   1_556  A
C1529      C1530   1.399       .  A
C1529      N1536   1.429       .  S
C1530      C1531   1.404   1_554  A
C1530      H1535   1.087       .  S
C1531      C1532   1.415       .  A
C1532      N1533   1.429       .  S
N1533      O1537   1.262   1_556  A
N1533      O1538   1.262       .  A
N1536      O1540   1.262   1_554  A
N1536      O1539   1.262       .  A
C1541      C1542   1.404       .  A
C1541      C1546   1.398       .  A
C1541      H1548   1.087       .  S
C1542      C1543   1.415   1_556  A
C1543      C1544   1.397       .  A
C1543      N1550   1.429       .  S
C1544      C1545   1.404   1_554  A
C1544      H1549   1.087       .  S
C1545      C1546   1.415       .  A
C1546      N1547   1.429       .  S
N1547      O1551   1.262       .  A
N1547      O1552   1.262   1_556  A
N1550      O1554   1.262       .  A
N1550      O1553   1.262   1_554  A
C1555      C1556   1.406       .  A
C1555      C1560   1.400       .  A
C1555      H1562   1.087       .  S
C1557      C1558   1.394       .  A
C1557      N1564   1.429       .  S
C1558      H1563   1.087       .  S
C1559      C1560   1.413       .  A
C1560      N1561   1.428       .  S
N1561      O1565   1.262       .  A
N1561      O1566   1.262   1_545  A
N1564      O1567   1.262       .  A
C1569      C3586   1.405       .  A
C1569      C1574   1.403       .  A
C1569      H1576   1.086       .  S
C1570      C3585   1.405       .  A
C1570      C1571   1.416   1_655  A
C1571      C1572   1.398       .  A
C1571      N1578   1.429       .  S
C1572      C1573   1.404   1_455  A
C1572      H1577   1.086       .  S
C1573      C3590   1.415       .  A
C1574      C3589   1.415       .  A
C1574      N1575   1.428       .  S
N1575      O1579   1.262       .  A
N1575      O1580   1.262       .  A
N1578      O1582   1.262       .  A
N1578      O1581   1.262       .  A
C1583      C3600   1.407   1_556  A
C1583      C1588   1.401       .  A
C1583      H1590   1.088       .  S
C1584      C3599   1.407   1_554  A
C1584      C1585   1.411   1_655  A
C1585      C1586   1.397       .  A
C1585      N1592   1.428       .  S
C1586      C1587   1.405   1_455  A
C1586      H1591   1.088       .  S
C1587      C3604   1.414   1_554  A
C1588      C3603   1.414   1_556  A
C1588      N1589   1.429       .  S
N1589      O1593   1.262       .  A
N1589      O1594   1.262   1_556  A
N1592      O3612   1.262       .  A
N1592      O1595   1.262       .  A
O1596      N3608   1.262       .  A
C1597      C1598   1.407   1_455  A
C1597      C1602   1.400       .  A
C1597      H1604   1.086       .  S
C1598      C3615   1.413   1_554  A
C1599      C3614   1.413   1_556  A
C1599      C1600   1.396       .  A
C1599      N1606   1.429       .  S
C1600      C3617   1.405       .  A
C1600      H1605   1.086       .  S
C1601      C3616   1.405       .  A
C1601      C1602   1.413   1_656  A
C1602      N1603   1.429       .  S
N1603      O1607   1.262   1_554  A
N1603      O1608   1.262       .  A
N1606      O1610   1.262   1_556  A
N1606      O1609   1.262       .  A
C1611      C1616   1.398       .  A
C1611      H1618   1.086       .  S
C1612      C3629   1.413       .  A
C1613      C3628   1.413       .  A
C1613      C1614   1.402       .  A
C1613      N3636   1.429       .  S
C1614      C2623   1.405       .  A
C1614      H1619   1.085       .  S
C1615      C2622   1.406       .  A
C1615      C1616   1.413   1_655  A
C1616      N3633   1.429       .  S
N1617      C3632   1.429       .  S
N1617      O3637   1.262       .  A
N1617      O1622   1.262       .  A
N1620      C3629   1.429       .  S
N1620      O3640   1.262       .  A
N1620      O1623   1.262       .  A
O1621      N3633   1.262       .  A
O1624      N3636   1.262       .  A
C1625      C1626   1.404       .  A
C1625      C1630   1.396       .  A
C1625      H1632   1.087       .  S
C1626      C1627   1.413       .  A
C1627      C1628   1.401       .  A
C1627      N1634   1.429       .  S
C1628      C1629   1.405       .  A
C1628      H1633   1.087       .  S
C1629      C1630   1.410       .  A
C1630      N1631   1.429       .  S
N1631      O1635   1.262       .  A
N1631      O1636   1.262       .  A
N1634      O1638   1.262       .  A
N1634      O1637   1.262       .  A
C1639      C1640   1.405       .  A
C1639      C1644   1.404       .  A
C1639      H1646   1.087       .  S
C1641      C1642   1.398       .  A
C1641      N1648   1.429       .  S
C1642      H1647   1.086       .  S
C1643      C1644   1.416       .  A
C1644      N1645   1.428       .  S
N1645      O1649   1.262       .  A
N1645      O1650   1.262       .  A
N1648      O1652   1.262       .  A
N1648      O1651   1.262       .  A
C1653      C1654   1.403       .  A
C1653      C1658   1.398       .  A
C1653      H1660   1.085       .  S
C1654      C1655   1.412       .  A
C1655      C1656   1.397       .  A
C1655      N1662   1.428       .  S
C1656      C1657   1.402       .  A
C1656      H1661   1.085       .  S
C1657      C1658   1.413       .  A
C1658      N1659   1.429       .  S
N1659      O1663   1.262       .  A
N1659      O1664   1.262       .  A
N1662      O1666   1.262       .  A
N1662      O1665   1.261       .  A
C1667      C1668   1.406       .  A
C1667      C1672   1.399       .  A
C1667      H1674   1.088       .  S
C1668      C1669   1.415       .  A
C1669      C1670   1.396       .  A
C1669      N1676   1.429       .  S
C1670      C1671   1.402       .  A
C1670      H1675   1.088       .  S
C1671      C1672   1.415       .  A
C1672      N1673   1.430       .  S
N1673      O1677   1.262       .  A
N1673      O1678   1.262       .  A
N1676      O1680   1.262       .  A
N1676      O1679   1.262       .  A
C1681      C3698   1.401       .  A
C1681      C1686   1.394       .  A
C1681      H1688   1.085       .  S
C1682      C3697   1.401       .  A
C1682      C1683   1.411   1_455  A
C1683      C1684   1.404       .  A
C1683      N1690   1.428       .  S
C1684      C1685   1.404   1_655  A
C1684      H1689   1.085       .  S
C1685      C3702   1.411       .  A
C1686      C3701   1.411       .  A
C1686      N1687   1.430       .  S
N1687      O1691   1.262       .  A
N1687      O1692   1.262       .  A
N1690      O1694   1.262       .  A
N1690      O1693   1.261       .  A
C1695      C1700   1.396       .  A
C1695      H1702   1.087       .  S
C1696      C1697   1.412       .  A
C1697      C1698   1.397       .  A
C1698      C1699   1.405       .  A
C1698      H1703   1.087       .  S
N1701      O1706   1.262       .  A
N1704      O1707   1.262       .  A
C1709      C1710   1.406       .  A
C1709      C1714   1.398       .  A
C1709      H1716   1.087       .  S
C1711      C1712   1.397       .  A
C1711      N1718   1.429       .  S
C1712      H1717   1.087       .  S
C1713      C1714   1.413       .  A
C1714      N1715   1.430       .  S
N1715      O1719   1.262       .  A
N1715      O1720   1.262       .  A
N1718      O1722   1.262       .  A
N1718      O1721   1.262       .  A
C1723      C3740   1.404       .  A
C1723      C1728   1.399       .  A
C1723      H1730   1.087       .  S
C1724      C3739   1.404   1_655  A
C1725      C1726   1.400       .  A
C1725      N1732   1.429       .  S
C1726      H1731   1.086   1_655  S
C1727      C3744   1.413   1_655  A
C1728      C3743   1.413       .  A
C1728      N1729   1.427       .  S
N1729      O1733   1.261       .  A
N1729      O1734   1.262       .  A
N1732      O1736   1.262   1_655  A
N1732      O1735   1.262       .  A
C1737      C1738   1.404       .  A
C1737      C1742   1.396       .  A
C1737      H1744   1.085       .  S
C1738      C1739   1.414       .  A
C1739      C1740   1.402       .  A
C1739      N1746   1.429       .  S
C1740      C1741   1.405       .  A
C1740      H1745   1.085       .  S
C1741      C1742   1.414       .  A
C1742      N1743   1.429       .  S
N1743      O1747   1.262       .  A
N1743      O1748   1.261       .  A
N1746      O1750   1.262       .  A
N1746      O1749   1.262       .  A
C1751      C1756   1.398       .  A
C1751      H1758   1.086       .  S
C1752      C1753   1.414       .  A
C1753      C1754   1.403       .  A
C1753      N1760   1.428       .  S
C1754      C1755   1.407       .  A
C1754      H1759   1.086       .  S
C1756      N1757   1.430       .  S
N1757      O1761   1.262       .  A
N1757      O1762   1.262       .  A
N1760      O1764   1.262       .  A
N1760      O1763   1.262       .  A
C1765      C1766   1.405   1_655  A
C1765      C1770   1.401       .  A
C1765      H1772   1.084       .  S
C1766      C3783   1.415       .  A
C1767      C3782   1.415       .  A
C1767      C1768   1.401       .  A
C1767      N1774   1.427       .  S
C1768      C3785   1.403       .  A
C1768      H1773   1.085       .  S
C1769      C3784   1.403       .  A
C1769      C1770   1.416   1_455  A
C1770      N1771   1.430       .  S
N1771      O1775   1.262       .  A
N1771      O1776   1.262   1_655  A
N1774      O1778   1.262       .  A
N1774      O1777   1.261       .  A
C1779      C1780   1.405       .  A
C1779      C1784   1.396       .  A
C1779      H1786   1.087       .  S
C1780      C1781   1.413       .  A
C1781      C1782   1.398       .  A
C1781      N1788   1.429       .  S
C1782      C1783   1.405       .  A
C1782      H1787   1.087       .  S
C1783      C1784   1.413       .  A
C1784      N1785   1.429       .  S
N1785      O1789   1.262       .  A
N1785      O1790   1.262       .  A
N1788      O1792   1.262       .  A
N1788      O1791   1.262       .  A
C1793      C1794   1.404       .  A
C1793      C1798   1.395       .  A
C1793      H1800   1.087       .  S
C1794      C1795   1.413       .  A
C1795      C1796   1.397       .  A
C1795      N1802   1.429       .  S
C1796      C1797   1.405       .  A
C1796      H1801   1.087       .  S
C1797      C1798   1.413       .  A
C1798      N1799   1.429       .  S
N1799      O1803   1.262       .  A
N1799      O1804   1.262       .  A
N1802      O1806   1.262       .  A
N1802      O1805   1.262       .  A
C1807      C2816   1.404       .  A
C1807      C1812   1.394       .  A
C1807      H1814   1.086       .  S
C1808      C2815   1.402   1_665  A
C1808      C1809   1.413       .  A
C1809      C1810   1.402       .  A
C1809      N1816   1.428       .  S
C1810      C1811   1.404       .  A
C1810      H1815   1.086       .  S
C1811      C2820   1.412   1_665  A
C1812      C2819   1.412       .  A
C1812      N1813   1.428       .  S
N1813      O1817   1.262       .  A
N1813      O1818   1.262       .  A
N1816      O1820   1.262       .  A
N1816      O1819   1.261       .  A
C1821      C1826   1.396       .  A
C1821      H1828   1.087       .  S
C1822      C1823   1.413       .  A
C1823      C1824   1.396       .  A
C1823      N1830   1.428       .  S
C1824      C1825   1.400       .  A
C1824      H1829   1.087       .  S
C1826      N1827   1.429       .  S
N1827      O1831   1.262       .  A
N1827      O1832   1.262       .  A
N1830      O1834   1.262       .  A
N1830      O1833   1.261       .  A
C1835      C1840   1.398       .  A
C1835      H1842   1.087       .  S
C1836      C1837   1.413       .  A
C1837      C1838   1.398       .  A
C1837      N1844   1.429       .  S
C1838      C1839   1.405       .  A
C1838      H1843   1.087       .  S
C1840      N1841   1.430       .  S
N1841      O1845   1.262       .  A
N1841      O1846   1.261       .  A
N1844      O1848   1.262       .  A
N1844      O1847   1.262       .  A
C1849      C1850   1.404       .  A
C1849      C1854   1.400       .  A
C1849      H1856   1.088       .  S
C1850      C1851   1.416       .  A
C1851      C1852   1.397       .  A
C1851      N1858   1.429       .  S
C1852      C1853   1.403       .  A
C1852      H1857   1.088       .  S
C1853      C1854   1.417       .  A
C1854      N1855   1.429       .  S
N1855      O1859   1.262       .  A
N1855      O1860   1.262       .  A
N1858      O1862   1.262       .  A
N1858      O1861   1.262       .  A
C1863      C1864   1.404       .  A
C1863      C1868   1.400       .  A
C1863      H1870   1.087       .  S
C1864      C1865   1.415       .  A
C1865      C1866   1.398       .  A
C1865      N1872   1.429       .  S
C1866      C1867   1.398       .  A
C1866      H1871   1.088       .  S
C1867      C1868   1.408       .  A
C1868      N1869   1.429       .  S
N1869      O1873   1.262       .  A
N1869      O1874   1.262       .  A
N1872      O1876   1.262       .  A
N1872      O1875   1.262       .  A
C1877      C1882   1.400       .  A
C1877      H1884   1.087       .  S
C1878      C1879   1.414       .  A
C1879      C1880   1.398       .  A
C1879      N1886   1.429       .  S
C1880      C1881   1.403       .  A
C1880      H1885   1.087       .  S
C1882      N1883   1.429       .  S
N1883      O1887   1.262       .  A
N1883      O1888   1.262       .  A
N1886      O1890   1.262       .  A
N1886      O1889   1.262       .  A
C1891      C1892   1.404       .  A
C1891      C1896   1.398       .  A
C1891      H1898   1.086       .  S
C1892      C1893   1.416       .  A
C1893      C1894   1.400       .  A
C1893      N1900   1.429       .  S
C1894      C1895   1.404       .  A
C1894      H1899   1.086       .  S
C1895      C1896   1.415       .  A
C1896      N1897   1.429       .  S
N1897      O1901   1.262       .  A
N1897      O1902   1.262       .  A
N1900      O1904   1.262       .  A
N1900      O1903   1.262       .  A
C1905      C1906   1.403       .  A
C1905      C1910   1.399       .  A
C1905      H1912   1.087       .  S
C1906      C1907   1.414       .  A
C1907      C1908   1.398       .  A
C1907      N1914   1.429       .  S
C1908      C1909   1.403       .  A
C1908      H1913   1.086       .  S
C1909      C1910   1.416       .  A
C1910      N1911   1.429       .  S
N1911      O1915   1.262       .  A
N1911      O1916   1.262       .  A
N1914      O1918   1.262       .  A
N1914      O1917   1.262       .  A
C1919      C1920   1.400       .  A
C1919      C1924   1.400       .  A
C1919      H1926   1.087       .  S
C1921      C1922   1.397       .  A
C1921      N1928   1.428       .  S
C1922      H1927   1.087       .  S
C1923      C1924   1.414       .  A
C1924      N1925   1.429       .  S
N1925      O1929   1.262       .  A
N1925      O1930   1.262       .  A
N1928      O1932   1.262       .  A
N1928      O1931   1.262       .  A
C1933      C3950   1.408       .  A
C1933      C1938   1.404       .  A
C1933      H1940   1.086       .  S
C1934      C3949   1.408       .  A
C1934      C1935   1.413   1_655  A
C1935      C1936   1.398       .  A
C1935      N1942   1.429       .  S
C1936      C1937   1.406   1_455  A
C1936      H1941   1.086       .  S
C1937      C3954   1.414       .  A
C1938      C3953   1.414       .  A
C1938      N1939   1.429       .  S
N1939      O1943   1.262       .  A
N1939      O1944   1.262       .  A
N1942      O1946   1.262       .  A
N1942      O3961   1.262       .  A
O1945      N3958   1.262       .  A
C1947      C3964   1.402       .  A
C1947      C1952   1.401       .  A
C1947      H1954   1.088       .  S
C1948      C3963   1.402       .  A
C1948      C1949   1.410   1_655  A
C1949      C1950   1.400       .  A
C1949      N1956   1.429       .  S
C1950      C1951   1.403   1_455  A
C1950      H1955   1.088       .  S
C1951      C3968   1.413       .  A
C1952      C3967   1.413       .  A
C1952      N1953   1.429       .  S
N1953      O1957   1.262       .  A
N1953      O1958   1.262       .  A
N1956      O1960   1.262       .  A
N1956      O1959   1.262       .  A
C1961      C1966   1.398       .  A
C1961      H1968   1.087       .  S
C1962      C3979   1.413       .  A
C1963      C3978   1.413       .  A
C1963      C1964   1.397       .  A
C1963      N1970   1.429       .  S
C1964      C3981   1.405       .  A
C1964      H1969   1.087       .  S
C1965      C3980   1.405       .  A
C1966      N1967   1.429       .  S
N1967      O1971   1.262       .  A
N1967      O1972   1.262   1_545  A
N1970      O1974   1.262       .  A
N1970      O1973   1.262       .  A
C1975      C3992   1.405   1_455  A
C1975      C1980   1.398       .  A
C1975      H1982   1.087       .  S
C1976      C3991   1.405       .  A
C1976      C1977   1.414       .  A
C1977      C1978   1.397       .  A
C1977      N1984   1.429       .  S
C1978      C1979   1.404       .  A
C1978      H1983   1.086       .  S
C1979      C3996   1.414       .  A
C1980      C3995   1.414   1_455  A
C1980      N1981   1.429       .  S
N1981      O1985   1.262       .  A
N1981      O1986   1.262       .  A
N1984      O1988   1.261       .  A
N1984      O1987   1.262       .  A
C1989      C4006   1.406   1_455  A
C1989      C1994   1.400       .  A
C1989      H1996   1.086       .  S
C1990      C4005   1.406       .  A
C1990      C1991   1.414       .  A
C1991      C1992   1.401       .  A
C1991      N1998   1.429       .  S
C1992      C1993   1.406       .  A
C1992      H1997   1.086       .  S
C1993      C4010   1.415       .  A
C1994      C4009   1.415   1_455  A
C1994      N1995   1.429       .  S
N1995      O1999   1.262       .  A
N1995      O2000   1.262       .  A
N1998      O2002   1.262       .  A
N1998      O2001   1.262       .  A
C2003      C2008   1.395       .  A
C2003      H2010   1.087       .  S
C2004      C4021   1.409       .  A
C2005      C4020   1.409       .  A
C2005      C2006   1.395       .  A
C2005      N2012   1.427       .  S
C2006      C4023   1.399       .  A
C2006      H2011   1.087       .  S
C2007      C4022   1.399       .  A
C2008      N2009   1.426       .  S
N2009      O2013   1.261       .  A
N2009      O2014   1.262       .  A
N2012      O2016   1.262       .  A
N2012      O2015   1.262       .  A
O2017      V2025   1.899   1_545  S
O2018      V3033   1.898       .  S
O2019      V2025   1.895       .  S
O2019      C2029   1.265   1_565  A
O2020      V3033   1.891       .  S
O2020      C2030   1.262       .  A
O2021      V3034   1.893   1_565  S
O2022      V2026   1.900       .  S
O2023      V2026   1.896       .  S
O2023      C2028   1.263       .  A
O2024      V3034   1.898       .  S
O2024      C2027   1.266       .  A
V2025      O3026   1.896       .  S
V2025      O3028   1.896       .  S
V2026      O3029   1.898       .  S
V2026      O3032   1.900       .  S
C2027      C3001   1.486       .  S
C2028      C2984   1.482       .  S
C2029      C2970   1.482       .  S
C2030      C3012   1.465       .  S
O2031      V2039   1.902       .  S
O2032      V2039   1.901       .  S
O2033      V2039   1.904       .  S
O2033      C2043   1.265       .  A
O2034      V2039   1.895       .  S
O2034      C2044   1.265       .  A
O2035      V2040   1.898       .  S
O2036      V2040   1.892       .  S
O2037      V2040   1.900       .  S
O2037      C2042   1.265       .  A
O2038      V2040   1.901       .  S
O2038      C2041   1.265       .  A
C2041      C2959   1.480       .  S
C2042      C2942   1.485       .  S
C2043      C2998   1.486       .  S
C2044      C2987   1.482       .  S
O2045      V2053   1.891       .  S
O2045      C2055   1.261       .  A
O2046      V3061   1.898       .  S
O2046      C3064   1.263       .  A
O2047      V3061   1.905       .  S
O2047      C2057   1.267       .  A
O2048      V2053   1.896       .  S
O2048      C2058   1.266       .  A
O2049      V2054   1.900       .  S
O2049      C2058   1.264       .  A
O2050      V3062   1.892       .  S
O2050      C2057   1.262       .  A
O2051      V2054   1.898       .  S
O2051      C2056   1.267       .  A
O2052      V3062   1.898       .  S
O2052      C3063   1.263       .  A
V2053      O3054   1.895       .  S
V2053      O3055   1.901       .  S
V2053      V2054   2.086       .  T
V2054      O3058   1.893       .  S
V2054      O3060   1.900       .  S
C2055      O3060   1.264       .  A
C2055      C2928   1.464       .  S
C2056      O3054   1.262       .  A
C2056      C2889   1.481       .  S
C2057      C2914   1.484       .  S
C2058      C2900   1.485       .  S
O2059      V2067   1.901       .  S
O2059      C2069   1.267       .  A
O2060      V2067   1.900       .  S
O2060      C2070   1.266       .  A
O2061      V2067   1.896       .  S
O2061      C2071   1.263       .  A
O2062      V2067   1.895       .  S
O2062      C2072   1.263       .  A
O2063      V2068   1.901       .  S
O2063      C2072   1.266       .  A
O2064      V2068   1.901       .  S
O2064      C2071   1.267       .  A
O2065      V2068   1.893       .  S
O2065      C2070   1.263       .  A
O2066      V2068   1.897       .  S
O2066      C2069   1.262       .  A
V2067      V2068   2.084       .  T
C2069      C2917   1.486       .  S
C2070      C2903   1.484       .  S
C2071      C2858   1.486       .  S
C2072      C2872   1.478       .  S
O2073      V2081   1.898       .  S
O2073      C3091   1.264   1_545  A
O2074      C3092   1.266   1_545  A
O2075      V2081   1.891       .  S
O2075      C3093   1.264   1_545  A
O2077      C2086   1.265       .  A
O2078      V2082   1.904       .  S
O2079      V2082   1.902       .  S
O2079      C2084   1.265       .  A
O2080      C2083   1.267       .  A
C2083      O3081   1.261       .  A
C2083      C2847   1.478       .  S
C2084      O3082   1.264       .  A
C2084      C2830   1.481       .  S
C2085      O3083   1.264       .  A
C2085      C2816   1.484       .  S
C2086      C3015   1.468       .  S
O2087      V2095   1.900       .  S
O2087      C2097   1.264       .  A
O2088      C2098   1.266       .  A
O2089      V2095   1.900       .  S
O2089      C2099   1.264       .  A
O2091      C2100   1.265       .  A
O2092      V2096   1.903       .  S
O2093      V2096   1.896   1_655  S
O2093      C2098   1.263       .  A
O2094      C2097   1.263       .  A
C2097      C2802   1.480       .  S
C2098      C2788   1.482       .  S
C2099      C2774   1.486       .  S
C2100      C2956   1.475       .  S
O2101      V2109   1.902       .  S
O2101      C2111   1.265       .  A
O2102      V2109   1.900       .  S
O2102      C2112   1.266       .  A
O2103      V2109   1.888       .  S
O2103      C2113   1.261       .  A
O2104      V2109   1.886       .  S
O2104      C2114   1.262       .  A
O2105      V2110   1.897       .  S
O2105      C3122   1.263   1_545  A
O2106      V2110   1.892       .  S
O2106      C3121   1.264   1_545  A
O2107      V2110   1.898       .  S
O2107      C3120   1.264   1_545  A
O2108      V2110   1.891       .  S
O2108      C3119   1.264   1_545  A
V2109      V3118   2.085       .  T
V2110      V3117   2.085   1_545  T
C2111      O3116   1.263       .  A
C2111      C2931   1.476       .  S
C2112      O3115   1.263       .  A
C2112      C2763   1.486       .  S
C2113      O3114   1.266       .  A
C2113      C2844   1.478       .  S
C2114      O3113   1.266       .  A
C2114      C2833   1.480       .  S
O2115      V2123   1.897       .  S
O2115      C2125   1.264       .  A
O2116      V2123   1.899       .  S
O2116      C2126   1.264       .  A
O2117      V2123   1.895       .  S
O2117      C2127   1.263       .  A
O2118      V2123   1.888       .  S
O2118      C2128   1.263       .  A
O2119      V2124   1.902       .  S
O2119      C2128   1.265       .  A
O2120      V2124   1.895       .  S
O2120      C2127   1.265       .  A
O2121      V2124   1.896       .  S
O2121      C2126   1.265       .  A
O2122      V2124   1.899       .  S
O2122      C2125   1.262       .  A
V2123      V2124   2.086       .  T
C2125      C2875   1.467       .  S
C2126      C2746   1.481       .  S
C2127      C2791   1.482       .  S
C2128      C2805   1.482       .  S
O2129      V2137   1.894       .  S
O2129      C2139   1.264       .  A
O2131      C2141   1.262       .  A
O2132      V2137   1.888       .  S
O2132      C2142   1.263       .  A
O2133      V2138   1.901       .  S
O2133      C3150   1.265   1_545  A
O2134      C3149   1.265   1_545  A
O2135      V2138   1.891       .  S
O2135      C3148   1.262   1_545  A
V2137      V3146   2.084       .  T
V2138      V3145   2.085   1_545  T
C2139      C2819   1.484       .  S
C2140      O3143   1.264       .  A
C2140      C2732   1.484       .  S
C2141      O3142   1.265       .  A
C2141      C2707   1.479       .  S
C2142      O3141   1.265       .  A
C2142      C2718   1.481       .  S
O2143      V2151   1.898   1_655  S
O2143      C2153   1.264       .  A
O2144      C2154   1.263       .  A
O2145      V2151   1.908       .  S
O2146      C2156   1.267       .  A
O2148      V2152   1.887       .  S
O2148      C2155   1.262       .  A
O2149      V2152   1.894       .  S
O2149      C2154   1.263       .  A
O2150      C2153   1.265       .  A
C2153      C2665   1.484       .  S
C2154      C2679   1.472       .  S
C2155      C2777   1.482       .  S
C2156      C2693   1.485       .  S
O2157      V2165   1.888       .  S
O2157      C3175   1.263       .  A
O2158      V2165   1.892   1_545  S
O2158      C3176   1.262   1_545  A
O2159      V2165   1.891   1_545  S
O2159      C3177   1.264   1_545  A
O2160      V2165   1.891       .  S
O2160      C3178   1.264       .  A
O2161      V2166   1.899       .  S
O2161      C2170   1.264       .  A
O2162      V2166   1.900       .  S
O2162      C2169   1.264       .  A
O2163      V2166   1.907       .  S
O2163      C2168   1.267       .  A
O2164      V2166   1.909       .  S
O2164      C2167   1.266       .  A
V2165      V3174   2.084       .  T
V2166      V3173   2.084       .  T
C2167      O3165   1.264       .  A
C2167      C2760   1.488       .  S
C2168      O3166   1.263       .  A
C2168      C2648   1.489       .  S
C2169      O3167   1.263       .  A
C2169      C2704   1.480       .  S
C2170      O3168   1.263       .  A
C2170      C2721   1.481       .  S
O2171      V2179   1.898       .  S
O2171      C2181   1.266       .  A
O2172      V2179   1.907       .  S
O2172      C2182   1.265       .  A
O2173      V2179   1.893       .  S
O2173      C2183   1.264       .  A
O2174      V2179   1.895       .  S
O2174      C2184   1.263       .  A
O2175      V2180   1.899       .  S
O2175      C2184   1.265       .  A
O2176      V2180   1.902       .  S
O2176      C2183   1.265       .  A
O2177      V2180   1.889       .  S
O2177      C2182   1.264       .  A
O2178      V2180   1.898       .  S
O2178      C2181   1.263       .  A
V2179      V2180   2.086       .  T
C2181      C2749   1.481       .  S
C2182      C2634   1.478       .  S
C2183      C2662   1.484       .  S
C2184      C2676   1.476       .  S
O2185      V2193   1.891   1_546  S
O2186      V3201   1.893       .  S
O2187      V2193   1.899       .  S
O2188      V3201   1.902   1_556  S
O2189      V3202   1.893   1_556  S
O2189      C2198   1.265       .  A
O2190      V2194   1.898       .  S
O2190      C3205   1.263       .  A
O2191      V2194   1.904       .  S
O2191      C2196   1.266       .  A
O2192      V3202   1.908   1_546  S
O2192      C2195   1.266       .  A
V2193      O3194   1.894       .  S
V2193      O3196   1.904   1_554  S
V2194      O3197   1.897   1_554  S
V2194      O3200   1.905   1_554  S
C2195      C2609   1.488       .  S
C2196      C2592   1.485       .  S
C2197      O3198   1.262       .  A
C2197      C2973   1.483   1_565  S
C2198      C2620   1.485       .  S
O2199      V2207   1.902       .  S
O2200      V2207   1.903       .  S
O2201      V2207   1.912       .  S
O2202      V2207   1.908   1_556  S
O2203      V2208   1.893   1_556  S
O2203      C2212   1.262       .  A
O2204      V2208   1.888       .  S
O2204      C2211   1.263       .  A
O2205      V2208   1.896       .  S
O2205      C2210   1.265       .  A
O2206      V2208   1.895       .  S
O2206      C2209   1.265       .  A
C2209      C2595   1.486       .  S
C2210      C2606   1.488       .  S
C2211      C2945   1.484       .  S
C2212      C2578   1.486       .  S
O2213      V2221   1.902   1_554  S
O2213      C2223   1.266       .  A
O2214      V3229   1.897       .  S
O2214      C3232   1.265       .  A
O2215      V3229   1.894   1_554  S
O2215      C2225   1.263   1_554  A
O2216      V2221   1.899       .  S
O2216      C2226   1.263       .  A
O2217      V2222   1.901       .  S
O2217      C2226   1.266       .  A
O2218      V3230   1.899       .  S
O2218      C2225   1.266       .  A
O2219      V2222   1.890       .  S
O2219      C2224   1.262       .  A
O2220      V3230   1.897   1_554  S
O2220      C3231   1.263       .  A
V2221      O3222   1.900       .  S
V2221      O3223   1.896       .  S
V2221      V2222   2.084       .  T
V2222      O3226   1.897       .  S
V2222      O3228   1.890   1_556  S
C2223      O3228   1.262       .  A
C2223      C2886   1.481       .  S
C2224      O3222   1.266       .  A
C2224      C2564   1.483       .  S
C2225      C2553   1.484       .  S
C2226      C2539   1.483       .  S
O2227      V2235   1.900   1_554  S
O2227      C2237   1.267       .  A
O2228      V2235   1.907       .  S
O2228      C2238   1.266       .  A
O2229      V2235   1.898       .  S
O2229      C2239   1.263       .  A
O2230      V2235   1.900       .  S
O2230      C2240   1.264       .  A
O2231      V2236   1.899       .  S
O2231      C2240   1.265       .  A
O2232      V2236   1.895       .  S
O2232      C2239   1.266       .  A
O2233      V2236   1.897       .  S
O2233      C2238   1.264       .  A
O2234      V2236   1.898   1_554  S
O2234      C2237   1.263       .  A
V2235      V2236   2.085       .  T
C2237      C2861   1.487       .  S
C2238      C2522   1.486       .  S
C2239      C2550   1.484       .  S
C2240      C2536   1.483       .  S
O2241      V3257   1.903       .  S
O2241      C3259   1.266       .  A
O2242      V2249   1.903       .  S
O2242      C2252   1.265       .  A
O2243      V2249   1.898       .  S
O2243      C2253   1.263       .  A
O2244      V3257   1.902   1_545  S
O2244      C2254   1.266       .  A
O2245      V3258   1.896   1_545  S
O2246      V2250   1.892       .  S
O2247      V3258   1.898       .  S
O2248      V2250   1.899       .  S
V2249      O3249   1.905       .  S
V2249      O3252   1.900       .  S
V2250      O3253   1.898       .  S
V2250      O3255   1.900       .  S
C2251      O3249   1.266       .  A
C2251      C2508   1.491       .  S
C2252      C2623   1.483       .  S
C2253      C2480   1.479       .  S
C2254      C2494   1.487       .  S
O2255      V2263   1.901       .  S
O2255      C2265   1.265       .  A
O2256      V2263   1.899       .  S
O2256      C2266   1.266       .  A
O2257      V2263   1.900       .  S
O2257      C2267   1.264       .  A
O2258      V2263   1.892       .  S
O2258      C2268   1.264       .  A
O2259      V2264   1.898       .  S
O2260      V2264   1.896       .  S
O2261      V2264   1.901       .  S
O2262      V2264   1.900       .  S
C2265      C2469   1.483       .  S
C2266      C2581   1.486       .  S
C2267      C2497   1.486       .  S
C2268      C2483   1.480       .  S
O2269      V2277   1.902       .  S
O2269      C2279   1.264       .  A
O2270      V3285   1.894       .  S
O2270      C2280   1.265       .  A
O2271      V2277   1.893       .  S
O2271      C2281   1.262       .  A
O2272      V3285   1.889       .  S
O2272      C3290   1.263       .  A
O2273      V3286   1.904       .  S
O2273      C2282   1.265       .  A
O2274      V2278   1.907       .  S
O2274      C3289   1.266       .  A
O2275      V2278   1.904       .  S
O2275      C2280   1.265       .  A
O2276      V3286   1.892       .  S
O2276      C2279   1.265       .  A
V2277      O3278   1.893       .  S
V2277      O3280   1.889       .  S
V2277      V3286   2.085       .  T
V2278      O3281   1.906       .  S
V2278      O3284   1.896   1_545  S
V2278      V3285   2.085       .  T
C2279      C2424   1.484       .  S
C2280      C2438   1.484       .  S
C2281      O3282   1.265       .  A
C2281      C2452   1.470       .  S
C2282      O3280   1.264       .  A
C2282      C2567   1.483       .  S
O2283      V2291   1.903       .  S
O2283      C2293   1.264       .  A
O2284      V2291   1.901       .  S
O2284      C2294   1.266       .  A
O2285      V2291   1.905       .  S
O2285      C2295   1.267       .  A
O2286      V2291   1.900       .  S
O2286      C2296   1.264       .  A
O2287      V2292   1.896       .  S
O2287      C2296   1.265       .  A
O2288      V2292   1.892       .  S
O2288      C2295   1.263       .  A
O2289      V2292   1.903       .  S
O2289      C2294   1.265       .  A
O2290      V2292   1.898       .  S
O2290      C2293   1.264       .  A
V2291      V2292   2.085       .  T
C2293      C2410   1.475       .  S
C2294      C2525   1.486       .  S
C2295      C2427   1.485       .  S
C2296      C2441   1.484       .  S
O2297      V2305   1.886       .  S
O2297      C3315   1.263   1_545  A
O2298      C3316   1.264   1_545  A
O2299      V2305   1.892       .  S
O2300      C3318   1.262   1_545  A
O2302      V2306   1.900       .  S
O2302      C2309   1.265       .  A
O2303      V2306   1.899       .  S
O2303      C2308   1.264       .  A
O2304      C2307   1.264       .  A
C2307      O3305   1.263       .  A
C2307      C2385   1.480       .  S
C2308      O3306   1.263       .  A
C2308      C2396   1.479       .  S
C2309      C2735   1.485       .  S
C2310      O3308   1.262       .  A
C2310      C2511   1.465       .  S
O2312      V2319   1.886       .  S
O2312      C2322   1.263       .  A
O2313      V2319   1.902       .  S
O2313      C2323   1.267       .  A
O2314      C2324   1.265       .  A
O2315      C2324   1.264       .  A
O2316      V2320   1.894       .  S
O2316      C2323   1.263       .  A
O2318      V2320   1.909       .  S
O2318      C2321   1.266       .  A
V2319      V2320   2.083       .  T
C2321      C2466   1.470       .  S
C2322      C2690   1.487       .  S
C2323      C2368   1.485       .  S
C2324      C2354   1.478       .  S
O2325      V2333   1.899       .  S
O2325      C3343   1.263   1_545  A
O2326      V2333   1.899       .  S
O2326      C3344   1.267   1_545  A
O2327      V2333   1.899       .  S
O2327      C3345   1.264   1_545  A
O2328      V2333   1.901       .  S
O2328      C3346   1.265   1_545  A
O2329      V2334   1.888       .  S
O2329      C2338   1.262       .  A
O2330      V2334   1.889       .  S
O2330      C2337   1.263       .  A
O2331      V2334   1.907       .  S
O2331      C2336   1.265       .  A
O2332      V2334   1.905       .  S
O2332      C2335   1.266       .  A
V2333      V3342   2.085   1_545  T
V2334      V3341   2.085       .  T
C2335      O3333   1.263       .  A
C2335      C2455   1.481       .  S
C2336      O3334   1.266       .  A
C2336      C2651   1.490       .  S
C2337      O3335   1.264       .  A
C2337      C2399   1.479       .  S
C2338      O3336   1.265       .  A
C2338      C2382   1.481       .  S
O2339      V2347   1.899       .  S
O2339      C2349   1.263       .  A
O2340      V2347   1.893       .  S
O2340      C2350   1.262       .  A
O2341      V2347   1.901       .  S
O2341      C2351   1.266       .  A
O2342      V2347   1.906       .  S
O2342      C2352   1.266       .  A
O2343      V2348   1.892       .  S
O2343      C2352   1.261       .  A
O2344      V2348   1.896       .  S
O2344      C2351   1.263       .  A
O2345      V2348   1.902       .  S
O2345      C2350   1.267       .  A
O2346      V2348   1.899       .  S
O2346      C2349   1.265       .  A
V2347      V2348   2.087       .  T
C2349      C2357   1.476       .  S
C2350      C2371   1.485       .  S
C2351      C2637   1.477       .  S
C2352      C2413   1.473       .  S
C2353      C2354   1.404       .  A
C2353      C2358   1.401       .  A
C2353      H2360   1.087       .  S
C2354      C2355   1.411       .  A
C2355      C2356   1.398       .  A
C2355      N2362   1.429       .  S
C2356      C2357   1.402       .  A
C2356      H2361   1.087       .  S
C2357      C2358   1.411       .  A
C2358      N2359   1.429       .  S
N2359      O2363   1.262       .  A
N2359      O2364   1.262       .  A
N2362      O2366   1.262       .  A
N2362      O2365   1.262       .  A
C2367      C2368   1.404       .  A
C2367      C2372   1.399       .  A
C2367      H2374   1.088       .  S
C2368      C2369   1.415       .  A
C2369      C2370   1.398       .  A
C2369      N2376   1.429       .  S
C2370      C2371   1.403       .  A
C2370      H2375   1.088       .  S
C2371      C2372   1.416       .  A
C2372      N2373   1.429       .  S
N2373      O2377   1.262       .  A
N2373      O2378   1.262       .  A
N2376      O2380   1.262       .  A
N2376      O2379   1.262       .  A
C2381      C2382   1.407       .  A
C2381      C2386   1.398       .  A
C2381      H2388   1.086       .  S
C2382      C3391   1.411       .  A
C2383      C3390   1.412   1_545  A
C2383      C2384   1.396       .  A
C2383      N2390   1.429       .  S
C2384      C3393   1.406   1_545  A
C2384      H2389   1.086       .  S
C2385      C3392   1.405       .  A
C2385      C2386   1.412       .  A
C2386      N2387   1.429       .  S
N2387      O2391   1.262       .  A
N2387      O2392   1.262       .  A
N2390      O2394   1.262       .  A
N2390      O2393   1.262       .  A
C2395      C3404   1.405   1_545  A
C2395      C2400   1.397       .  A
C2395      H2402   1.087       .  S
C2396      C3403   1.405       .  A
C2396      C2397   1.411       .  A
C2397      C2398   1.396       .  A
C2397      N2404   1.429       .  S
C2398      C2399   1.404       .  A
C2398      H2403   1.087       .  S
C2399      C3408   1.412       .  A
C2400      C3407   1.411   1_545  A
C2400      N2401   1.429       .  S
N2401      O2405   1.262       .  A
N2401      O2406   1.261       .  A
N2404      O3416   1.262       .  A
N2404      O2407   1.262       .  A
O2408      N3412   1.262       .  A
C2409      C2410   1.401       .  A
C2409      C2414   1.398       .  A
C2409      H2416   1.088       .  S
C2410      C2411   1.411       .  A
C2411      C2412   1.401       .  A
C2411      N2418   1.427       .  S
C2412      C2413   1.401       .  A
C2412      H2417   1.088       .  S
C2413      C2414   1.411       .  A
C2414      N2415   1.429       .  S
N2415      O2419   1.262       .  A
N2415      O2420   1.262       .  A
N2418      O2422   1.261       .  A
N2418      O2421   1.262       .  A
C2423      C2424   1.402       .  A
C2423      C2428   1.394       .  A
C2423      H2430   1.087       .  S
C2424      C2425   1.415       .  A
C2425      C2426   1.403       .  A
C2425      N2432   1.429       .  S
C2426      C2427   1.406       .  A
C2426      H2431   1.087       .  S
C2427      C2428   1.414       .  A
C2428      N2429   1.429       .  S
N2429      O2433   1.262       .  A
N2429      O2434   1.262       .  A
N2432      O2436   1.262       .  A
N2432      O2435   1.262       .  A
C2437      C2438   1.405       .  A
C2437      C2442   1.397       .  A
C2437      H2444   1.087       .  S
C2438      C2439   1.414       .  A
C2439      C2440   1.400       .  A
C2439      N2446   1.429       .  S
C2440      C2441   1.406       .  A
C2440      H2445   1.088       .  S
C2441      C2442   1.413       .  A
C2442      N2443   1.429       .  S
N2443      O2447   1.261       .  A
N2443      O2448   1.262       .  A
N2446      O2450   1.262       .  A
N2446      O2449   1.262       .  A
C2451      C3460   1.404       .  A
C2451      C2456   1.398       .  A
C2451      H2458   1.087       .  S
C2452      C3459   1.398       .  A
C2452      C2453   1.409       .  A
C2453      C2454   1.401       .  A
C2453      N2460   1.429       .  S
C2454      C2455   1.405       .  A
C2454      H2459   1.087       .  S
C2455      C3464   1.414       .  A
C2456      C3463   1.407   1_545  A
C2456      N2457   1.427       .  S
N2457      O2461   1.262       .  A
N2457      O2462   1.262       .  A
N2460      O2464   1.261       .  A
N2460      O2463   1.262       .  A
C2465      C2470   1.399       .  A
C2465      H2472   1.087       .  S
C2466      C2467   1.407       .  A
C2467      C2468   1.401       .  A
C2467      N2474   1.429       .  S
C2468      C2469   1.407       .  A
C2468      H2473   1.087       .  S
C2470      N2471   1.429       .  S
N2471      O2475   1.262       .  A
N2471      O2476   1.262       .  A
N2474      O2478   1.262       .  A
N2474      O2477   1.262       .  A
C2479      C2484   1.396       .  A
C2479      H2486   1.088       .  S
C2480      C2481   1.412       .  A
C2481      C2482   1.397       .  A
C2481      N2488   1.429       .  S
C2482      C2483   1.405       .  A
C2482      H2487   1.088       .  S
C2484      N2485   1.429       .  S
N2485      O2489   1.262       .  A
N2485      O2490   1.262       .  A
N2488      O2492   1.262       .  A
N2488      O2491   1.261       .  A
C2493      C2494   1.406       .  A
C2493      C2498   1.401       .  A
C2493      H2500   1.087       .  S
C2495      C2496   1.397       .  A
C2495      N2502   1.429       .  S
C2496      H2501   1.087       .  S
C2497      C2498   1.415       .  A
C2498      N2499   1.429       .  S
N2499      O2503   1.262       .  A
N2499      O2504   1.262       .  A
N2502      O2506   1.262       .  A
N2502      O2505   1.262       .  A
C2507      C3516   1.408       .  A
C2507      C2512   1.402       .  A
C2507      H2514   1.084       .  S
C2508      C3515   1.411       .  A
C2509      C2510   1.399       .  A
C2509      N2516   1.429       .  S
C2510      H2515   1.084       .  S
C2511      C3520   1.404       .  A
C2512      C3519   1.406       .  A
C2512      N2513   1.430       .  S
N2513      O2517   1.262       .  A
N2513      O2518   1.262       .  A
N2516      O2520   1.262       .  A
N2516      O2519   1.262       .  A
C2521      C2522   1.405       .  A
C2521      C2526   1.401       .  A
C2521      H2528   1.087       .  S
C2522      C2523   1.412       .  A
C2523      C2524   1.401       .  A
C2523      N2530   1.429       .  S
C2524      C2525   1.405       .  A
C2524      H2529   1.087       .  S
C2525      C2526   1.414       .  A
C2526      N2527   1.429       .  S
N2527      O2531   1.262       .  A
N2527      O2532   1.262       .  A
N2530      O2534   1.262       .  A
N2530      O2533   1.262       .  A
C2535      C2536   1.404       .  A
C2535      C2540   1.400       .  A
C2535      H2542   1.087       .  S
C2536      C2537   1.413   1_556  A
C2537      C2538   1.400       .  A
C2537      N2544   1.429       .  S
C2538      C2539   1.404   1_554  A
C2538      H2543   1.087       .  S
C2539      C2540   1.414       .  A
C2540      N2541   1.429       .  S
N2541      O2545   1.262       .  A
N2541      O2546   1.262       .  A
N2544      O2548   1.262       .  A
N2544      O2547   1.262       .  A
C2549      C2550   1.403       .  A
C2549      C2554   1.396       .  A
C2549      H2556   1.087       .  S
C2550      C2551   1.415   1_556  A
C2551      C2552   1.400       .  A
C2551      N2558   1.429       .  S
C2552      C2553   1.405   1_554  A
C2552      H2557   1.087       .  S
C2553      C2554   1.415       .  A
C2554      N2555   1.429       .  S
N2555      O2559   1.262       .  A
N2555      O2560   1.262   1_556  A
N2558      O2562   1.262       .  A
N2558      O2561   1.262   1_554  A
C2563      C2564   1.405       .  A
C2563      C2568   1.401       .  A
C2563      H2570   1.087       .  S
C2564      C3573   1.414       .  A
C2565      C3572   1.414       .  A
C2565      C2566   1.397       .  A
C2565      N2572   1.429       .  S
C2566      C3575   1.405       .  A
C2566      H2571   1.087       .  S
C2567      C3574   1.404       .  A
C2567      C2568   1.414       .  A
C2568      N2569   1.429       .  S
N2569      O2573   1.262       .  A
N2569      O2574   1.262       .  A
N2572      O3584   1.262   1_545  A
N2572      O2575   1.262       .  A
O2576      N3580   1.262       .  A
C2577      C2582   1.401       .  A
C2577      H2584   1.087       .  S
C2578      C2579   1.416       .  A
C2579      C2580   1.398       .  A
C2579      N2586   1.429       .  S
C2580      C2581   1.403       .  A
C2580      H2585   1.088       .  S
C2582      N2583   1.429       .  S
N2583      O2587   1.262       .  A
N2583      O2588   1.262       .  A
N2586      O2590   1.262       .  A
N2586      O2589   1.262       .  A
C2591      C2596   1.400   1_554  A
C2591      H2598   1.087   1_554  S
C2592      C2593   1.412       .  A
C2593      C2594   1.398       .  A
C2593      N2600   1.429       .  S
C2594      C2595   1.405       .  A
C2594      H2599   1.086       .  S
C2596      N2597   1.429       .  S
N2597      O2601   1.262       .  A
N2597      O2602   1.262   1_556  A
N2600      O2603   1.262       .  A
C2605      C2606   1.407       .  A
C2605      C2610   1.401   1_554  A
C2605      H2612   1.086       .  S
C2607      C2608   1.398       .  A
C2607      N2614   1.429       .  S
C2608      H2613   1.086       .  S
C2609      C2610   1.413       .  A
C2610      N2611   1.429   1_556  S
N2611      O2615   1.262   1_554  A
N2611      O2616   1.262       .  A
N2614      O2618   1.262   1_556  A
N2614      O2617   1.262       .  A
C2619      C3628   1.403       .  A
C2619      C2624   1.398       .  A
C2619      H2626   1.085       .  S
C2620      C3627   1.405       .  A
C2621      C2622   1.401       .  A
C2622      H2627   1.086   1_565  S
C2623      C2624   1.412       .  A
N2625      O2630   1.261       .  A
N2628      O2631   1.262       .  A
C2633      C2634   1.403       .  A
C2633      C2638   1.394       .  A
C2633      H2640   1.088       .  S
C2634      C2635   1.412       .  A
C2635      C2636   1.403       .  A
C2635      N2642   1.429       .  S
C2636      C2637   1.406       .  A
C2636      H2641   1.088       .  S
C2637      C2638   1.408       .  A
C2638      N2639   1.429       .  S
N2639      O2643   1.262       .  A
N2639      O2644   1.262       .  A
N2642      O2646   1.262       .  A
N2642      O2645   1.262       .  A
C2647      C2648   1.406       .  A
C2647      C2652   1.403       .  A
C2647      H2654   1.086       .  S
C2648      C3657   1.416       .  A
C2649      C3656   1.417   1_545  A
C2649      C2650   1.398       .  A
C2649      N2656   1.429       .  S
C2650      C3659   1.404   1_545  A
C2650      H2655   1.087       .  S
C2651      C3658   1.404       .  A
C2651      C2652   1.415       .  A
C2652      N2653   1.428       .  S
N2653      O2657   1.262       .  A
N2653      O2658   1.262       .  A
N2656      O2660   1.262       .  A
N2656      O2659   1.262       .  A
C2661      C2662   1.405       .  A
C2661      C2666   1.397       .  A
C2661      H2668   1.087       .  S
C2662      C2663   1.413       .  A
C2663      C2664   1.399       .  A
C2663      N2670   1.429       .  S
C2664      C2665   1.405       .  A
C2664      H2669   1.087       .  S
C2665      C2666   1.414       .  A
C2666      N2667   1.429       .  S
N2667      O2671   1.262       .  A
N2667      O2672   1.262       .  A
N2670      O2674   1.262       .  A
N2670      O2673   1.262       .  A
C2675      C2676   1.405       .  A
C2675      C2680   1.399       .  A
C2675      H2682   1.088       .  S
C2676      C2677   1.412       .  A
C2677      C2678   1.397       .  A
C2677      N2684   1.429       .  S
C2678      C2679   1.401       .  A
C2678      H2683   1.089       .  S
C2679      C2680   1.411       .  A
C2680      N2681   1.431       .  S
N2681      O2685   1.262       .  A
N2681      O2686   1.262       .  A
N2684      O2688   1.262       .  A
N2684      O2687   1.262       .  A
C2689      C2694   1.395       .  A
C2689      H2696   1.081       .  S
C2690      C2691   1.413       .  A
C2691      C2692   1.406       .  A
C2691      N2698   1.427       .  S
C2692      C2693   1.406       .  A
C2692      H2697   1.081       .  S
C2694      N2695   1.430       .  S
N2695      O2699   1.262       .  A
N2695      O2700   1.262       .  A
N2698      O2702   1.262       .  A
N2698      O2701   1.261       .  A
C2703      C3712   1.404   1_545  A
C2703      C2708   1.397       .  A
C2703      H2710   1.087       .  S
C2704      C3711   1.405       .  A
C2704      C2705   1.412       .  A
C2705      C2706   1.397       .  A
C2705      N3720   1.429       .  S
C2706      C2707   1.406       .  A
C2706      H2711   1.087       .  S
C2707      C3716   1.411       .  A
C2708      C3715   1.411   1_545  A
C2708      N3717   1.429       .  S
N2709      C3716   1.429       .  S
N2709      O3721   1.262       .  A
N2709      O2714   1.262       .  A
N2712      C3713   1.429       .  S
N2712      O3724   1.262       .  A
N2712      O2715   1.262       .  A
O2713      N3717   1.262       .  A
O2716      N3720   1.262       .  A
C2717      C2718   1.406       .  A
C2717      C2722   1.396       .  A
C2717      H2724   1.087       .  S
C2718      C3727   1.412       .  A
C2719      C3726   1.412   1_545  A
C2719      C2720   1.397       .  A
C2719      N2726   1.429       .  S
C2720      C3729   1.404   1_545  A
C2720      H2725   1.087       .  S
C2721      C3728   1.406       .  A
C2721      C2722   1.412       .  A
C2722      N2723   1.429       .  S
N2723      O2727   1.262       .  A
N2723      O2728   1.262       .  A
N2726      O2730   1.262       .  A
N2726      O2729   1.262       .  A
C2731      C2736   1.396       .  A
C2731      H2738   1.086       .  S
C2732      C3741   1.413       .  A
C2733      C3740   1.414   1_545  A
C2733      C2734   1.397       .  A
C2733      N2740   1.429       .  S
C2734      C3743   1.404   1_545  A
C2734      H2739   1.086       .  S
C2735      C3742   1.406       .  A
C2736      N2737   1.428       .  S
N2737      O2741   1.262       .  A
N2737      O2742   1.261   1_655  A
N2740      O2744   1.262       .  A
N2740      O2743   1.262       .  A
C2745      C2746   1.404       .  A
C2745      C2750   1.399       .  A
C2745      H2752   1.087       .  S
C2746      C2747   1.412       .  A
C2747      C2748   1.398       .  A
C2747      N2754   1.429       .  S
C2748      C2749   1.403       .  A
C2748      H2753   1.087       .  S
C2749      C2750   1.414       .  A
C2750      N2751   1.429       .  S
N2751      O2755   1.262       .  A
N2751      O2756   1.262       .  A
N2754      O2758   1.262       .  A
N2754      O2757   1.262       .  A
C2759      C3768   1.406   1_545  A
C2759      C2764   1.396       .  A
C2759      H2766   1.086       .  S
C2760      C3767   1.406       .  A
C2760      C2761   1.414       .  A
C2761      C2762   1.401       .  A
C2761      N2768   1.428       .  S
C2762      C2763   1.405       .  A
C2762      H2767   1.086       .  S
C2763      C3772   1.414       .  A
C2764      C3771   1.413   1_545  A
C2764      N2765   1.429       .  S
N2765      O2769   1.262       .  A
N2765      O2770   1.262       .  A
N2768      O2772   1.262       .  A
N2768      O2771   1.262       .  A
C2773      C2774   1.404       .  A
C2773      C2778   1.398       .  A
C2773      H2780   1.084       .  S
C2775      C2776   1.403       .  A
C2775      N2782   1.428       .  S
C2776      H2781   1.085       .  S
C2777      C2778   1.413       .  A
C2778      N2779   1.430       .  S
N2779      O2783   1.262       .  A
N2779      O2784   1.262       .  A
N2782      O2786   1.262       .  A
N2782      O2785   1.261       .  A
C2787      C2788   1.404       .  A
C2787      C2792   1.396       .  A
C2787      H2794   1.087       .  S
C2788      C2789   1.414       .  A
C2789      C2790   1.398       .  A
C2789      N2796   1.429       .  S
C2790      C2791   1.404       .  A
C2790      H2795   1.087       .  S
C2791      C2792   1.414       .  A
C2792      N2793   1.429       .  S
N2793      O2797   1.262       .  A
N2793      O2798   1.262       .  A
N2796      O2800   1.262       .  A
N2796      O2799   1.262       .  A
C2801      C2802   1.405       .  A
C2801      C2806   1.397       .  A
C2801      H2808   1.086       .  S
C2802      C2803   1.412       .  A
C2803      C2804   1.397       .  A
C2803      N2810   1.429       .  S
C2804      C2805   1.406       .  A
C2804      H2809   1.086       .  S
C2805      C2806   1.412       .  A
C2806      N2807   1.429       .  S
N2807      O2811   1.262       .  A
N2807      O2812   1.262       .  A
N2810      O2814   1.262       .  A
N2810      O2813   1.262       .  A
C2815      C2820   1.394       .  A
C2815      H2822   1.086       .  S
C2816      C2817   1.414       .  A
C2817      C2818   1.401       .  A
C2817      N2824   1.429       .  S
C2818      C2819   1.407       .  A
C2818      H2823   1.086       .  S
C2820      N2821   1.428       .  S
N2821      O2825   1.262       .  A
N2821      O2826   1.262   1_455  A
N2824      O2828   1.262       .  A
N2824      O2827   1.262       .  A
C2829      C3838   1.404   1_545  A
C2829      C2834   1.399       .  A
C2829      H2836   1.087       .  S
C2830      C3837   1.405       .  A
C2830      C2831   1.412       .  A
C2831      C2832   1.398       .  A
C2831      N2838   1.429       .  S
C2832      C2833   1.406       .  A
C2832      H2837   1.087       .  S
C2833      C3842   1.411       .  A
C2834      C3841   1.412   1_545  A
C2834      N2835   1.429       .  S
N2835      O2839   1.262       .  A
N2835      O2840   1.262       .  A
N2838      O2842   1.262       .  A
N2838      O2841   1.262       .  A
C2843      C3852   1.404   1_545  A
C2843      C2848   1.397       .  A
C2843      H2850   1.087       .  S
C2844      C3851   1.402       .  A
C2844      C2845   1.414       .  A
C2845      C2846   1.395       .  A
C2845      N2852   1.429       .  S
C2846      C2847   1.402       .  A
C2846      H2851   1.087       .  S
C2847      C3856   1.416       .  A
C2848      C3855   1.414   1_545  A
C2848      N2849   1.430       .  S
N2849      O2853   1.262       .  A
N2849      O2854   1.261       .  A
N2852      O2856   1.262       .  A
N2852      O2855   1.262       .  A
C2857      C2858   1.404       .  A
C2857      C2862   1.400       .  A
C2857      H2864   1.087       .  S
C2858      C2859   1.415       .  A
C2859      C2860   1.398       .  A
C2859      N2866   1.429       .  S
C2860      C2861   1.404       .  A
C2860      H2865   1.087       .  S
C2861      C2862   1.416       .  A
C2862      N2863   1.429       .  S
N2863      O2867   1.262       .  A
N2863      O2868   1.262       .  A
N2866      O2870   1.262       .  A
N2866      O2869   1.262       .  A
C2871      C2872   1.405       .  A
C2871      C2876   1.400       .  A
C2871      H2878   1.088       .  S
C2872      C2873   1.414       .  A
C2873      C2874   1.397       .  A
C2873      N2880   1.429       .  S
C2874      C2875   1.398       .  A
C2874      H2879   1.088       .  S
C2875      C2876   1.408       .  A
C2876      N2877   1.429       .  S
N2877      O2881   1.262       .  A
N2877      O2882   1.262       .  A
N2880      O2884   1.262       .  A
N2880      O2883   1.262       .  A
C2885      C3894   1.404       .  A
C2885      C2890   1.400   1_545  A
C2885      H2892   1.087   1_545  S
C2886      C3893   1.403       .  A
C2886      C2887   1.414       .  A
C2887      C2888   1.396       .  A
C2887      N2894   1.429       .  S
C2888      C2889   1.402       .  A
C2888      H2893   1.087       .  S
C2889      C3898   1.415       .  A
C2890      C3897   1.415   1_565  A
C2890      N2891   1.429       .  S
N2891      O2895   1.262       .  A
N2891      O2896   1.262   1_565  A
N2894      O2898   1.262       .  A
N2894      O2897   1.262       .  A
C2899      C2900   1.404       .  A
C2899      C2904   1.397       .  A
C2899      H2906   1.086       .  S
C2900      C2901   1.415       .  A
C2901      C2902   1.400       .  A
C2901      N2908   1.429       .  S
C2902      C2903   1.405       .  A
C2902      H2907   1.086       .  S
C2903      C2904   1.414       .  A
C2904      N2905   1.429       .  S
N2905      O2909   1.262       .  A
N2905      O2910   1.262       .  A
N2908      O2912   1.262       .  A
N2908      O2911   1.262       .  A
C2913      C2914   1.404       .  A
C2913      C2918   1.402       .  A
C2913      H2920   1.086       .  S
C2914      C2915   1.414       .  A
C2915      C2916   1.397       .  A
C2915      N2922   1.429       .  S
C2916      C2917   1.403       .  A
C2916      H2921   1.086       .  S
C2917      C2918   1.416       .  A
C2918      N2919   1.429       .  S
N2919      O2923   1.262       .  A
N2919      O2924   1.262       .  A
N2922      O2926   1.262       .  A
N2922      O2925   1.261       .  A
C2927      C2928   1.400       .  A
C2927      C2932   1.398       .  A
C2927      H2934   1.087       .  S
C2928      C3937   1.405       .  A
C2929      C3936   1.405   1_545  A
C2929      C2930   1.396       .  A
C2929      N2936   1.428       .  S
C2930      C3939   1.404   1_545  A
C2930      H2935   1.087       .  S
C2931      C3938   1.405       .  A
C2931      C2932   1.412       .  A
C2932      N2933   1.429       .  S
N2933      O2937   1.262       .  A
N2933      O2938   1.262       .  A
N2936      O2940   1.262       .  A
N2936      O2939   1.261       .  A
C2941      C2946   1.404       .  A
C2941      H2948   1.087       .  S
C2942      C2943   1.412       .  A
C2943      C2944   1.396       .  A
C2943      N2950   1.429       .  S
C2944      C2945   1.404       .  A
C2944      H2949   1.087       .  S
C2946      N2947   1.429       .  S
N2947      O2951   1.262       .  A
N2947      O2952   1.262       .  A
N2950      O2954   1.262       .  A
C2955      C2960   1.400       .  A
C2955      H2962   1.088       .  S
C2956      C2957   1.409       .  A
C2957      C2958   1.401       .  A
C2957      N2964   1.429       .  S
C2958      C2959   1.404       .  A
C2958      H2963   1.088       .  S
C2960      N2961   1.429       .  S
N2961      O2965   1.262       .  A
N2961      O2966   1.262       .  A
N2964      O2968   1.262       .  A
N2964      O2967   1.262       .  A
C2969      C3978   1.405       .  A
C2969      C2974   1.398       .  A
C2969      H2976   1.087       .  S
C2970      C3977   1.404       .  A
C2971      C2972   1.398       .  A
C2971      N2978   1.429       .  S
C2972      H2977   1.087       .  S
C2973      C3982   1.415       .  A
C2974      C3981   1.414       .  A
C2974      N2975   1.429       .  S
N2975      O2979   1.262       .  A
N2975      O2980   1.262       .  A
N2978      O2982   1.262       .  A
N2978      O2981   1.262   1_565  A
C2983      C2988   1.399       .  A
C2983      H2990   1.087       .  S
C2984      C2985   1.414       .  A
C2985      C2986   1.397       .  A
C2985      N2992   1.429       .  S
C2986      C2987   1.403       .  A
C2986      H2991   1.087       .  S
C2988      N2989   1.429       .  S
N2989      O2993   1.262       .  A
N2989      O2994   1.262       .  A
N2992      O2996   1.261       .  A
N2992      O2995   1.261       .  A
C2997      C3002   1.398       .  A
C2997      H3004   1.086       .  S
C2998      C2999   1.413       .  A
C2999      C3000   1.399       .  A
C2999      N3006   1.428       .  S
C3000      C3001   1.405       .  A
C3000      H3005   1.086       .  S
C3002      N3003   1.429       .  S
N3003      O3007   1.262       .  A
N3003      O3008   1.262       .  A
N3006      O3010   1.262       .  A
N3006      O3009   1.262       .  A
C3011      C4020   1.399   1_545  A
C3011      C3016   1.398       .  A
C3011      H3018   1.087       .  S
C3012      C4019   1.397       .  A
C3013      C3014   1.397       .  A
C3013      N3020   1.426       .  S
C3014      H3019   1.087       .  S
C3015      C4024   1.411       .  A
C3016      C4023   1.412   1_545  A
C3016      N3017   1.427       .  S
N3017      O3021   1.262       .  A
N3017      O3022   1.262       .  A
N3020      O3024   1.262       .  A
N3020      O3023   1.262       .  A
O3025      V3033   1.902       .  S
O3027      V3033   1.891       .  S
O3027      C3037   1.264       .  A
O3028      C3038   1.264       .  A
O3030      V3034   1.896       .  S
O3031      V3034   1.896   1_565  S
O3031      C3036   1.263       .  A
O3032      C3035   1.266       .  A
C3035      C4009   1.489       .  S
C3036      C3992   1.482       .  S
C3037      C3978   1.483       .  S
C3038      C4020   1.467       .  S
O3039      V3047   1.901       .  S
O3040      V3047   1.901       .  S
O3041      V3047   1.906       .  S
O3041      C3051   1.266       .  A
O3042      V3047   1.895       .  S
O3042      C3052   1.265       .  A
O3043      V3048   1.897       .  S
O3044      V3048   1.895       .  S
O3045      V3048   1.904       .  S
O3045      C3050   1.266       .  A
O3046      V3048   1.902       .  S
O3046      C3049   1.266       .  A
C3049      C3967   1.479       .  S
C3050      C3950   1.491       .  S
C3051      C4006   1.488       .  S
C3052      C3995   1.482       .  S
O3053      V3061   1.895   1_565  S
O3053      C3063   1.262   1_565  A
O3055      C3065   1.266       .  A
O3056      V3061   1.899   1_565  S
O3056      C3066   1.266       .  A
O3057      V3062   1.898   1_565  S
O3057      C3066   1.263       .  A
O3058      C3065   1.262       .  A
O3059      V3062   1.898       .  S
O3059      C3064   1.266       .  A
V3061      V3062   2.086       .  T
C3063      C3936   1.466   1_545  S
C3064      C3897   1.484       .  S
C3065      C3922   1.481       .  S
C3066      C3908   1.486       .  S
O3067      V3075   1.902       .  S
O3067      C3077   1.267       .  A
O3068      V3075   1.901       .  S
O3068      C3078   1.266       .  A
O3069      V3075   1.893       .  S
O3069      C3079   1.262       .  A
O3070      V3075   1.893       .  S
O3070      C3080   1.262       .  A
O3071      V3076   1.904       .  S
O3071      C3080   1.267       .  A
O3072      V3076   1.904       .  S
O3072      C3079   1.267       .  A
O3073      V3076   1.893       .  S
O3073      C3078   1.262       .  A
O3074      V3076   1.894       .  S
O3074      C3077   1.262       .  A
V3075      V3076   2.084       .  T
C3077      C3925   1.483       .  S
C3078      C3911   1.485       .  S
C3079      C3866   1.487       .  S
C3080      C3880   1.479       .  S
O3081      V3089   1.889       .  S
O3083      V3089   1.887       .  S
O3085      C3094   1.265       .  A
O3086      V3090   1.904       .  S
O3087      V3090   1.894       .  S
O3087      C3092   1.262       .  A
O3088      C3091   1.265       .  A
C3091      C3855   1.481       .  S
C3092      C3838   1.478       .  S
C3093      C3824   1.480       .  S
C3094      C4023   1.469       .  S
O3095      V3103   1.896       .  S
O3095      C3105   1.263       .  A
O3096      C3106   1.264       .  A
O3097      V3103   1.902       .  S
O3097      C3107   1.265       .  A
O3099      C3108   1.265       .  A
O3100      V3104   1.904       .  S
O3101      V3104   1.899   1_655  S
O3101      C3106   1.264       .  A
O3102      C3105   1.264       .  A
C3105      C3810   1.479       .  S
C3106      C3796   1.482       .  S
C3107      C3782   1.491       .  S
C3108      C3964   1.476       .  S
O3109      V3117   1.902       .  S
O3109      C3119   1.264       .  A
O3110      V3117   1.901       .  S
O3110      C3120   1.266       .  A
O3111      V3117   1.900       .  S
O3111      C3121   1.264       .  A
O3112      V3117   1.892       .  S
O3112      C3122   1.264       .  A
O3113      V3118   1.903       .  S
O3114      V3118   1.899       .  S
O3115      V3118   1.896       .  S
O3116      V3118   1.891       .  S
C3119      C3939   1.476       .  S
C3120      C3771   1.487       .  S
C3121      C3852   1.481       .  S
C3122      C3841   1.476       .  S
O3123      V3131   1.899       .  S
O3123      C3133   1.264       .  A
O3124      V3131   1.904       .  S
O3124      C3134   1.264       .  A
O3125      V3131   1.896       .  S
O3125      C3135   1.264       .  A
O3126      V3131   1.892       .  S
O3126      C3136   1.264       .  A
O3127      V3132   1.898       .  S
O3127      C3136   1.264       .  A
O3128      V3132   1.891       .  S
O3128      C3135   1.264       .  A
O3129      V3132   1.893       .  S
O3129      C3134   1.265       .  A
O3130      V3132   1.898       .  S
O3130      C3133   1.262       .  A
V3131      V3132   2.085       .  T
C3133      C3883   1.468       .  S
C3134      C3754   1.484       .  S
C3135      C3799   1.481       .  S
C3136      C3813   1.481       .  S
O3137      V3145   1.901       .  S
O3137      C3147   1.265       .  A
O3139      C3149   1.262       .  A
O3140      V3145   1.890       .  S
O3140      C3150   1.263       .  A
O3141      V3146   1.901       .  S
O3143      V3146   1.902       .  S
C3147      C3827   1.480       .  S
C3148      C3740   1.482       .  S
C3149      C3715   1.478       .  S
C3150      C3726   1.482       .  S
O3151      V3159   1.893   1_655  S
O3151      C3161   1.262       .  A
O3152      C3162   1.262       .  A
O3153      V3159   1.910       .  S
O3154      C3164   1.266       .  A
O3156      V3160   1.888       .  S
O3156      C3163   1.261       .  A
O3157      V3160   1.895       .  S
O3157      C3162   1.265       .  A
O3158      C3161   1.266       .  A
C3161      C3673   1.477       .  S
C3162      C3687   1.481       .  S
C3163      C3785   1.488       .  S
C3164      C3701   1.475       .  S
O3165      V3173   1.891       .  S
O3166      V3173   1.894       .  S
O3167      V3173   1.888       .  S
O3168      V3173   1.888       .  S
O3169      V3174   1.898       .  S
O3169      C3178   1.264       .  A
O3170      V3174   1.898       .  S
O3170      C3177   1.264       .  A
O3171      V3174   1.912       .  S
O3171      C3176   1.269       .  A
O3172      V3174   1.913       .  S
O3172      C3175   1.267       .  A
C3175      C3768   1.489       .  S
C3176      C3656   1.491       .  S
C3177      C3712   1.478       .  S
C3178      C3729   1.480       .  S
O3179      V3187   1.903       .  S
O3179      C3189   1.266       .  A
O3180      V3187   1.906       .  S
O3180      C3190   1.265       .  A
O3181      V3187   1.896       .  S
O3181      C3191   1.265       .  A
O3182      V3187   1.899       .  S
O3182      C3192   1.265       .  A
O3183      V3188   1.894       .  S
O3183      C3192   1.263       .  A
O3184      V3188   1.895       .  S
O3184      C3191   1.263       .  A
O3185      V3188   1.890       .  S
O3185      C3190   1.264       .  A
O3186      V3188   1.892       .  S
O3186      C3189   1.262       .  A
V3187      V3188   2.085       .  T
C3189      C3757   1.484       .  S
C3190      C3642   1.480       .  S
C3191      C3670   1.477       .  S
C3192      C3684   1.484       .  S
O3193      V3201   1.888       .  S
O3195      V3201   1.895       .  S
O3197      C3206   1.266       .  A
O3198      V3202   1.894       .  S
O3199      V3202   1.905       .  S
O3199      C3204   1.266       .  A
O3200      C3203   1.266       .  A
C3203      C3617   1.484       .  S
C3204      C3600   1.485       .  S
C3205      C3981   1.484       .  S
C3206      C3628   1.482       .  S
O3207      V3215   1.906       .  S
O3208      V3215   1.901       .  S
O3209      V3215   1.913       .  S
O3210      V3215   1.908   1_556  S
O3211      V3216   1.894   1_556  S
O3211      C3220   1.262       .  A
O3212      V3216   1.891       .  S
O3212      C3219   1.264       .  A
O3213      V3216   1.893       .  S
O3213      C3218   1.264       .  A
O3214      V3216   1.892       .  S
O3214      C3217   1.265       .  A
C3217      C3603   1.485       .  S
C3218      C3614   1.485       .  S
C3219      C3953   1.491       .  S
C3220      C3586   1.489       .  S
O3221      V3229   1.899   1_554  S
O3221      C3231   1.266       .  A
O3223      C3233   1.263       .  A
O3224      V3229   1.897   1_565  S
O3224      C3234   1.263       .  A
O3225      V3230   1.901   1_565  S
O3225      C3234   1.266       .  A
O3226      C3233   1.266       .  A
O3227      V3230   1.897       .  S
O3227      C3232   1.263       .  A
V3229      V3230   2.084       .  T
C3231      C3894   1.483       .  S
C3232      C3572   1.484       .  S
C3233      C3561   1.484       .  S
C3234      C3547   1.485       .  S
O3235      V3243   1.902   1_554  S
O3235      C3245   1.267       .  A
O3236      V3243   1.907       .  S
O3236      C3246   1.267       .  A
O3237      V3243   1.892       .  S
O3237      C3247   1.262       .  A
O3238      V3243   1.896       .  S
O3238      C3248   1.263       .  A
O3239      V3244   1.902       .  S
O3239      C3248   1.267       .  A
O3240      V3244   1.900       .  S
O3240      C3247   1.267       .  A
O3241      V3244   1.894       .  S
O3241      C3246   1.263       .  A
O3242      V3244   1.895   1_554  S
O3242      C3245   1.262       .  A
V3243      V3244   2.084       .  T
C3245      C3869   1.486       .  S
C3246      C3530   1.484       .  S
C3247      C3558   1.484       .  S
C3248      C3544   1.484       .  S
O3250      V3257   1.901       .  S
O3250      C3260   1.265       .  A
O3251      V3257   1.899       .  S
O3251      C3261   1.264       .  A
O3252      C3262   1.267       .  A
O3254      V3258   1.895       .  S
O3256      V3258   1.901       .  S
C3259      C3516   1.483       .  S
C3260      C3631   1.485       .  S
C3261      C3488   1.483       .  S
C3262      C3502   1.488       .  S
O3263      V3271   1.896       .  S
O3263      C3273   1.264       .  A
O3264      V3271   1.896       .  S
O3264      C3274   1.265       .  A
O3265      V3271   1.896       .  S
O3265      C3275   1.263       .  A
O3266      V3271   1.891       .  S
O3266      C3276   1.264       .  A
O3267      V3272   1.906       .  S
O3268      V3272   1.902       .  S
O3269      V3272   1.905       .  S
O3270      V3272   1.902       .  S
C3273      C3477   1.481       .  S
C3274      C3589   1.489       .  S
C3275      C3505   1.487       .  S
C3276      C3491   1.485       .  S
O3277      V3285   1.899   1_565  S
O3277      C3287   1.264       .  A
O3278      C3288   1.265       .  A
O3279      V3285   1.889       .  S
O3279      C3289   1.262       .  A
O3281      C3290   1.266       .  A
O3282      V3286   1.904       .  S
O3283      V3286   1.906       .  S
O3283      C3288   1.265       .  A
O3284      C3287   1.266       .  A
C3287      C3432   1.486       .  S
C3288      C3446   1.485       .  S
C3289      C3460   1.477       .  S
C3290      C3575   1.485       .  S
O3291      V3299   1.894       .  S
O3291      C3301   1.261       .  A
O3292      V3299   1.890       .  S
O3292      C3302   1.263       .  A
O3293      V3299   1.900       .  S
O3293      C3303   1.266       .  A
O3294      V3299   1.895       .  S
O3294      C3304   1.264       .  A
O3295      V3300   1.901       .  S
O3295      C3304   1.265       .  A
O3296      V3300   1.898       .  S
O3296      C3303   1.263       .  A
O3297      V3300   1.910       .  S
O3297      C3302   1.267       .  A
O3298      V3300   1.905       .  S
O3298      C3301   1.266       .  A
V3299      V3300   2.085       .  T
C3301      C3418   1.472       .  S
C3302      C3533   1.483       .  S
C3303      C3435   1.487       .  S
C3304      C3449   1.485       .  S
O3305      V3313   1.888       .  S
O3307      V3313   1.894       .  S
O3310      V3314   1.901       .  S
O3310      C3317   1.265       .  A
O3311      V3314   1.899       .  S
O3311      C3316   1.264       .  A
O3312      C3315   1.265       .  A
C3315      C3393   1.482       .  S
C3316      C3404   1.479       .  S
C3317      C3743   1.484       .  S
C3318      C3519   1.470       .  S
O3320      V3327   1.888       .  S
O3320      C3330   1.263       .  A
O3321      V3327   1.897       .  S
O3321      C3331   1.266       .  A
O3322      C3332   1.264       .  A
O3323      C3332   1.264       .  A
O3324      V3328   1.899       .  S
O3324      C3331   1.264       .  A
O3326      V3328   1.904       .  S
O3326      C3329   1.265       .  A
V3327      V3328   2.083       .  T
C3329      C3474   1.467       .  S
C3330      C3698   1.476       .  S
C3331      C3376   1.486       .  S
C3332      C3362   1.476       .  S
O3333      V3341   1.898       .  S
O3334      V3341   1.896       .  S
O3335      V3341   1.902       .  S
O3336      V3341   1.902       .  S
O3337      V3342   1.888       .  S
O3337      C3346   1.263       .  A
O3338      V3342   1.891       .  S
O3338      C3345   1.264       .  A
O3339      V3342   1.905       .  S
O3339      C3344   1.265       .  A
O3340      V3342   1.901       .  S
O3340      C3343   1.264       .  A
C3343      C3463   1.471       .  S
C3344      C3659   1.491       .  S
C3345      C3407   1.477       .  S
C3346      C3390   1.482       .  S
O3347      V3355   1.899       .  S
O3347      C3357   1.264       .  A
O3348      V3355   1.895       .  S
O3348      C3358   1.263       .  A
O3349      V3355   1.900       .  S
O3349      C3359   1.265       .  A
O3350      V3355   1.905       .  S
O3350      C3360   1.266       .  A
O3351      V3356   1.893       .  S
O3351      C3360   1.262       .  A
O3352      V3356   1.894       .  S
O3352      C3359   1.263       .  A
O3353      V3356   1.900       .  S
O3353      C3358   1.266       .  A
O3354      V3356   1.896       .  S
O3354      C3357   1.264       .  A
V3355      V3356   2.086       .  T
C3357      C3365   1.473       .  S
C3358      C3379   1.486       .  S
C3359      C3645   1.479       .  S
C3360      C3421   1.475       .  S
C3361      C3362   1.404       .  A
C3361      C3366   1.400       .  A
C3361      H3368   1.086       .  S
C3362      C3363   1.411       .  A
C3363      C3364   1.397       .  A
C3363      N3370   1.429       .  S
C3364      C3365   1.402       .  A
C3364      H3369   1.085       .  S
C3365      C3366   1.410       .  A
C3366      N3367   1.429       .  S
N3367      O3371   1.262       .  A
N3367      O3372   1.262       .  A
N3370      O3374   1.262       .  A
N3370      O3373   1.262       .  A
C3375      C3376   1.404       .  A
C3375      C3380   1.398       .  A
C3375      H3382   1.087       .  S
C3376      C3377   1.415       .  A
C3377      C3378   1.399       .  A
C3377      N3384   1.429       .  S
C3378      C3379   1.405       .  A
C3378      H3383   1.087       .  S
C3379      C3380   1.415       .  A
C3380      N3381   1.429       .  S
N3381      O3385   1.262       .  A
N3381      O3386   1.262       .  A
N3384      O3388   1.262       .  A
N3384      O3387   1.262       .  A
C3389      C3390   1.406       .  A
C3389      C3394   1.398       .  A
C3389      H3396   1.086       .  S
C3391      C3392   1.396       .  A
C3391      N3398   1.429       .  S
C3392      H3397   1.086       .  S
C3393      C3394   1.412       .  A
C3394      N3395   1.429       .  S
N3395      O3399   1.262       .  A
N3395      O3400   1.262       .  A
N3398      O3402   1.262       .  A
N3398      O3401   1.262       .  A
C3403      C3408   1.398       .  A
C3403      H3410   1.087       .  S
C3404      C3405   1.412       .  A
C3405      C3406   1.397       .  A
C3405      N3412   1.429       .  S
C3406      C3407   1.404       .  A
C3406      H3411   1.087       .  S
C3408      N3409   1.429       .  S
N3409      O3413   1.262       .  A
N3409      O3414   1.261       .  A
N3412      O3415   1.262       .  A
C3417      C3418   1.399       .  A
C3417      C3422   1.398       .  A
C3417      H3424   1.087       .  S
C3418      C3419   1.412       .  A
C3419      C3420   1.401       .  A
C3419      N3426   1.428       .  S
C3420      C3421   1.401       .  A
C3420      H3425   1.087       .  S
C3421      C3422   1.413       .  A
C3422      N3423   1.428       .  S
N3423      O3427   1.262       .  A
N3423      O3428   1.261       .  A
N3426      O3430   1.262       .  A
N3426      O3429   1.262       .  A
C3431      C3432   1.404       .  A
C3431      C3436   1.398       .  A
C3431      H3438   1.087       .  S
C3432      C3433   1.415       .  A
C3433      C3434   1.399       .  A
C3433      N3440   1.429       .  S
C3434      C3435   1.405       .  A
C3434      H3439   1.087       .  S
C3435      C3436   1.415       .  A
C3436      N3437   1.429       .  S
N3437      O3441   1.262       .  A
N3437      O3442   1.262       .  A
N3440      O3444   1.262       .  A
N3440      O3443   1.262       .  A
C3445      C3446   1.403       .  A
C3445      C3450   1.395       .  A
C3445      H3452   1.088       .  S
C3446      C3447   1.415       .  A
C3447      C3448   1.403       .  A
C3447      N3454   1.429       .  S
C3448      C3449   1.406       .  A
C3448      H3453   1.088       .  S
C3449      C3450   1.413       .  A
C3450      N3451   1.429       .  S
N3451      O3455   1.261       .  A
N3451      O3456   1.262       .  A
N3454      O3458   1.262       .  A
N3454      O3457   1.262       .  A
C3459      C3464   1.398       .  A
C3459      H3466   1.087       .  S
C3460      C3461   1.412   1_545  A
C3461      C3462   1.401       .  A
C3461      N3468   1.429       .  S
C3462      C3463   1.402       .  A
C3462      H3467   1.087       .  S
C3464      N3465   1.427       .  S
N3465      O3469   1.261       .  A
N3465      O3470   1.262       .  A
N3468      O3472   1.262       .  A
N3468      O3471   1.262       .  A
C3473      C3478   1.399       .  A
C3473      H3480   1.088       .  S
C3474      C3475   1.406       .  A
C3475      C3476   1.399       .  A
C3475      N3482   1.429       .  S
C3476      C3477   1.407       .  A
C3476      H3481   1.087       .  S
C3478      N3479   1.429       .  S
N3479      O3483   1.262       .  A
N3479      O3484   1.262       .  A
N3482      O3486   1.262       .  A
N3482      O3485   1.262       .  A
C3487      C3492   1.400       .  A
C3487      H3494   1.087       .  S
C3488      C3489   1.413       .  A
C3489      C3490   1.397       .  A
C3489      N3496   1.429       .  S
C3490      C3491   1.405       .  A
C3490      H3495   1.087       .  S
C3492      N3493   1.429       .  S
N3493      O3497   1.262       .  A
N3493      O3498   1.262       .  A
N3496      O3500   1.262       .  A
N3496      O3499   1.262       .  A
C3501      C3502   1.404       .  A
C3501      C3506   1.399       .  A
C3501      H3508   1.087       .  S
C3503      C3504   1.400       .  A
C3503      N3510   1.429       .  S
C3504      H3509   1.087       .  S
C3505      C3506   1.416       .  A
C3506      N3507   1.429       .  S
N3507      O3511   1.262       .  A
N3507      O3512   1.262       .  A
N3510      O3514   1.262       .  A
N3510      O3513   1.262       .  A
C3515      C3520   1.403       .  A
C3515      H3522   1.083       .  S
C3517      C3518   1.400       .  A
C3517      N3524   1.429       .  S
C3518      H3523   1.085       .  S
C3520      N3521   1.430       .  S
N3521      O3525   1.262       .  A
N3521      O3526   1.262       .  A
N3524      O3528   1.262       .  A
N3524      O3527   1.262       .  A
C3529      C3530   1.407       .  A
C3529      C3534   1.402       .  A
C3529      H3536   1.087       .  S
C3530      C3531   1.411       .  A
C3531      C3532   1.398       .  A
C3531      N3538   1.429       .  S
C3532      C3533   1.405       .  A
C3532      H3537   1.087       .  S
C3533      C3534   1.412       .  A
C3534      N3535   1.429       .  S
N3535      O3539   1.262       .  A
N3535      O3540   1.262       .  A
N3538      O3542   1.262       .  A
N3538      O3541   1.262       .  A
C3543      C3544   1.403       .  A
C3543      C3548   1.400       .  A
C3543      H3550   1.087       .  S
C3544      C3545   1.415   1_556  A
C3545      C3546   1.399       .  A
C3545      N3552   1.429       .  S
C3546      C3547   1.404   1_554  A
C3546      H3551   1.087       .  S
C3547      C3548   1.415       .  A
C3548      N3549   1.429       .  S
N3549      O3553   1.262   1_556  A
N3549      O3554   1.262       .  A
N3552      O3556   1.262   1_554  A
N3552      O3555   1.262       .  A
C3557      C3558   1.403       .  A
C3557      C3562   1.398       .  A
C3557      H3564   1.087       .  S
C3558      C3559   1.415   1_556  A
C3559      C3560   1.397       .  A
C3559      N3566   1.429       .  S
C3560      C3561   1.404   1_554  A
C3560      H3565   1.087       .  S
C3561      C3562   1.415       .  A
C3562      N3563   1.429       .  S
N3563      O3567   1.262       .  A
N3563      O3568   1.262   1_556  A
N3566      O3570   1.262       .  A
N3566      O3569   1.262   1_554  A
C3571      C3572   1.406       .  A
C3571      C3576   1.400       .  A
C3571      H3578   1.087       .  S
C3573      C3574   1.394       .  A
C3573      N3580   1.429       .  S
C3574      H3579   1.087       .  S
C3575      C3576   1.413       .  A
C3576      N3577   1.428       .  S
N3577      O3581   1.262       .  A
N3577      O3582   1.262   1_545  A
N3580      O3583   1.262       .  A
C3585      C3590   1.403       .  A
C3585      H3592   1.086       .  S
C3586      C3587   1.416       .  A
C3587      C3588   1.398       .  A
C3587      N3594   1.429       .  S
C3588      C3589   1.404       .  A
C3588      H3593   1.086       .  S
C3590      N3591   1.428       .  S
N3591      O3595   1.262       .  A
N3591      O3596   1.262       .  A
N3594      O3598   1.262       .  A
N3594      O3597   1.262       .  A
C3599      C3604   1.401       .  A
C3599      H3606   1.088       .  S
C3600      C3601   1.411       .  A
C3601      C3602   1.397       .  A
C3601      N3608   1.428       .  S
C3602      C3603   1.405       .  A
C3602      H3607   1.088       .  S
C3604      N3605   1.429       .  S
N3605      O3609   1.262       .  A
N3605      O3610   1.262   1_556  A
N3608      O3611   1.262       .  A
C3613      C3614   1.407       .  A
C3613      C3618   1.400       .  A
C3613      H3620   1.086       .  S
C3615      C3616   1.396       .  A
C3615      N3622   1.429       .  S
C3616      H3621   1.086       .  S
C3617      C3618   1.413   1_556  A
C3618      N3619   1.429       .  S
N3619      O3623   1.262   1_554  A
N3619      O3624   1.262       .  A
N3622      O3626   1.262   1_556  A
N3622      O3625   1.262       .  A
C3627      C3632   1.398       .  A
C3627      H3634   1.086       .  S
C3629      C3630   1.402       .  A
C3630      H3635   1.085       .  S
C3631      C3632   1.413       .  A
N3633      O3638   1.262       .  A
N3636      O3639   1.262       .  A
C3641      C3642   1.404       .  A
C3641      C3646   1.396       .  A
C3641      H3648   1.087       .  S
C3642      C3643   1.413       .  A
C3643      C3644   1.401       .  A
C3643      N3650   1.429       .  S
C3644      C3645   1.406       .  A
C3644      H3649   1.087       .  S
C3645      C3646   1.410       .  A
C3646      N3647   1.429       .  S
N3647      O3651   1.262       .  A
N3647      O3652   1.262       .  A
N3650      O3654   1.262       .  A
N3650      O3653   1.262       .  A
C3655      C3656   1.405       .  A
C3655      C3660   1.404       .  A
C3655      H3662   1.087       .  S
C3657      C3658   1.398       .  A
C3657      N3664   1.429       .  S
C3658      H3663   1.086       .  S
C3659      C3660   1.416       .  A
C3660      N3661   1.428       .  S
N3661      O3665   1.262       .  A
N3661      O3666   1.262       .  A
N3664      O3668   1.262       .  A
N3664      O3667   1.262       .  A
C3669      C3670   1.403       .  A
C3669      C3674   1.398       .  A
C3669      H3676   1.085       .  S
C3670      C3671   1.412       .  A
C3671      C3672   1.397       .  A
C3671      N3678   1.428       .  S
C3672      C3673   1.402       .  A
C3672      H3677   1.085       .  S
C3673      C3674   1.413       .  A
C3674      N3675   1.429       .  S
N3675      O3679   1.262       .  A
N3675      O3680   1.262       .  A
N3678      O3682   1.262       .  A
N3678      O3681   1.261       .  A
C3683      C3684   1.406       .  A
C3683      C3688   1.399       .  A
C3683      H3690   1.088       .  S
C3684      C3685   1.415       .  A
C3685      C3686   1.396       .  A
C3685      N3692   1.429       .  S
C3686      C3687   1.402       .  A
C3686      H3691   1.088       .  S
C3687      C3688   1.415       .  A
C3688      N3689   1.430       .  S
N3689      O3693   1.262       .  A
N3689      O3694   1.262       .  A
N3692      O3696   1.262       .  A
N3692      O3695   1.262       .  A
C3697      C3702   1.394       .  A
C3697      H3704   1.085       .  S
C3698      C3699   1.411       .  A
C3699      C3700   1.404       .  A
C3699      N3706   1.428       .  S
C3700      C3701   1.404       .  A
C3700      H3705   1.085       .  S
C3702      N3703   1.430       .  S
N3703      O3707   1.262       .  A
N3703      O3708   1.262       .  A
N3706      O3710   1.262       .  A
N3706      O3709   1.261       .  A
C3711      C3716   1.396       .  A
C3711      H3718   1.087       .  S
C3712      C3713   1.412       .  A
C3713      C3714   1.397       .  A
C3714      C3715   1.405       .  A
C3714      H3719   1.087       .  S
N3717      O3722   1.262       .  A
N3720      O3723   1.262       .  A
C3725      C3726   1.406       .  A
C3725      C3730   1.398       .  A
C3725      H3732   1.087       .  S
C3727      C3728   1.397       .  A
C3727      N3734   1.429       .  S
C3728      H3733   1.087       .  S
C3729      C3730   1.413       .  A
C3730      N3731   1.430       .  S
N3731      O3735   1.262       .  A
N3731      O3736   1.262       .  A
N3734      O3738   1.262       .  A
N3734      O3737   1.262       .  A
C3739      C3744   1.399       .  A
C3739      H3746   1.087       .  S
C3741      C3742   1.400       .  A
C3741      N3748   1.429       .  S
C3742      H3747   1.086       .  S
C3744      N3745   1.427       .  S
N3745      O3749   1.261   1_455  A
N3745      O3750   1.262       .  A
N3748      O3752   1.262       .  A
N3748      O3751   1.262       .  A
C3753      C3754   1.404       .  A
C3753      C3758   1.396       .  A
C3753      H3760   1.085       .  S
C3754      C3755   1.414       .  A
C3755      C3756   1.402       .  A
C3755      N3762   1.429       .  S
C3756      C3757   1.405       .  A
C3756      H3761   1.085       .  S
C3757      C3758   1.414       .  A
C3758      N3759   1.429       .  S
N3759      O3763   1.262       .  A
N3759      O3764   1.261       .  A
N3762      O3766   1.262       .  A
N3762      O3765   1.262       .  A
C3767      C3772   1.398       .  A
C3767      H3774   1.086       .  S
C3768      C3769   1.414       .  A
C3769      C3770   1.403       .  A
C3769      N3776   1.428       .  S
C3770      C3771   1.407       .  A
C3770      H3775   1.086       .  S
C3772      N3773   1.430       .  S
N3773      O3777   1.262       .  A
N3773      O3778   1.262       .  A
N3776      O3780   1.262       .  A
N3776      O3779   1.262       .  A
C3781      C3782   1.405       .  A
C3781      C3786   1.401       .  A
C3781      H3788   1.084       .  S
C3783      C3784   1.402       .  A
C3783      N3790   1.427       .  S
C3784      H3789   1.085       .  S
C3785      C3786   1.416       .  A
C3786      N3787   1.430       .  S
N3787      O3791   1.262       .  A
N3787      O3792   1.262       .  A
N3790      O3794   1.262       .  A
N3790      O3793   1.261   1_455  A
C3795      C3796   1.405       .  A
C3795      C3800   1.396       .  A
C3795      H3802   1.087       .  S
C3796      C3797   1.413       .  A
C3797      C3798   1.397       .  A
C3797      N3804   1.429       .  S
C3798      C3799   1.405       .  A
C3798      H3803   1.087       .  S
C3799      C3800   1.413       .  A
C3800      N3801   1.429       .  S
N3801      O3805   1.262       .  A
N3801      O3806   1.262       .  A
N3804      O3808   1.262       .  A
N3804      O3807   1.262       .  A
C3809      C3810   1.404       .  A
C3809      C3814   1.396       .  A
C3809      H3816   1.087       .  S
C3810      C3811   1.413       .  A
C3811      C3812   1.397       .  A
C3811      N3818   1.429       .  S
C3812      C3813   1.405       .  A
C3812      H3817   1.087       .  S
C3813      C3814   1.413       .  A
C3814      N3815   1.429       .  S
N3815      O3819   1.262       .  A
N3815      O3820   1.262       .  A
N3818      O3822   1.262       .  A
N3818      O3821   1.262       .  A
C3823      C3828   1.394       .  A
C3823      H3830   1.086   1_655  S
C3824      C3825   1.413       .  A
C3825      C3826   1.402       .  A
C3825      N3832   1.428       .  S
C3826      C3827   1.404       .  A
C3826      H3831   1.086       .  S
C3828      N3829   1.428   1_655  S
N3829      O3833   1.262       .  A
N3829      O3834   1.262   1_455  A
N3832      O3836   1.262       .  A
N3832      O3835   1.261       .  A
C3837      C3842   1.396       .  A
C3837      H3844   1.087       .  S
C3838      C3839   1.413       .  A
C3839      C3840   1.396       .  A
C3839      N3846   1.428       .  S
C3840      C3841   1.400       .  A
C3840      H3845   1.087       .  S
C3842      N3843   1.429       .  S
N3843      O3847   1.262       .  A
N3843      O3848   1.262       .  A
N3846      O3850   1.262       .  A
N3846      O3849   1.261       .  A
C3851      C3856   1.397       .  A
C3851      H3858   1.087       .  S
C3852      C3853   1.413       .  A
C3853      C3854   1.398       .  A
C3853      N3860   1.429       .  S
C3854      C3855   1.405       .  A
C3854      H3859   1.087       .  S
C3856      N3857   1.430       .  S
N3857      O3861   1.262       .  A
N3857      O3862   1.261       .  A
N3860      O3864   1.262       .  A
N3860      O3863   1.262       .  A
C3865      C3866   1.404       .  A
C3865      C3870   1.400       .  A
C3865      H3872   1.088       .  S
C3866      C3867   1.416       .  A
C3867      C3868   1.397       .  A
C3867      N3874   1.429       .  S
C3868      C3869   1.403       .  A
C3868      H3873   1.088       .  S
C3869      C3870   1.417       .  A
C3870      N3871   1.429       .  S
N3871      O3875   1.262       .  A
N3871      O3876   1.262       .  A
N3874      O3878   1.262       .  A
N3874      O3877   1.262       .  A
C3879      C3880   1.404       .  A
C3879      C3884   1.400       .  A
C3879      H3886   1.087       .  S
C3880      C3881   1.415       .  A
C3881      C3882   1.398       .  A
C3881      N3888   1.429       .  S
C3882      C3883   1.398       .  A
C3882      H3887   1.088       .  S
C3883      C3884   1.409       .  A
C3884      N3885   1.429       .  S
N3885      O3889   1.262       .  A
N3885      O3890   1.262       .  A
N3888      O3892   1.262       .  A
N3888      O3891   1.262       .  A
C3893      C3898   1.400       .  A
C3893      H3900   1.087       .  S
C3894      C3895   1.414       .  A
C3895      C3896   1.398       .  A
C3895      N3902   1.429       .  S
C3896      C3897   1.403       .  A
C3896      H3901   1.087       .  S
C3898      N3899   1.429       .  S
N3899      O3903   1.262       .  A
N3899      O3904   1.262       .  A
N3902      O3906   1.262       .  A
N3902      O3905   1.262       .  A
C3907      C3908   1.404       .  A
C3907      C3912   1.398       .  A
C3907      H3914   1.086       .  S
C3908      C3909   1.416       .  A
C3909      C3910   1.400       .  A
C3909      N3916   1.429       .  S
C3910      C3911   1.404       .  A
C3910      H3915   1.086       .  S
C3911      C3912   1.415       .  A
C3912      N3913   1.429       .  S
N3913      O3917   1.262       .  A
N3913      O3918   1.262       .  A
N3916      O3920   1.262       .  A
N3916      O3919   1.262       .  A
C3921      C3922   1.403       .  A
C3921      C3926   1.399       .  A
C3921      H3928   1.087       .  S
C3922      C3923   1.414       .  A
C3923      C3924   1.398       .  A
C3923      N3930   1.429       .  S
C3924      C3925   1.403       .  A
C3924      H3929   1.086       .  S
C3925      C3926   1.416       .  A
C3926      N3927   1.429       .  S
N3927      O3931   1.262       .  A
N3927      O3932   1.262       .  A
N3930      O3934   1.262       .  A
N3930      O3933   1.262       .  A
C3935      C3936   1.400       .  A
C3935      C3940   1.400       .  A
C3935      H3942   1.087       .  S
C3937      C3938   1.397       .  A
C3937      N3944   1.428       .  S
C3938      H3943   1.087       .  S
C3939      C3940   1.414       .  A
C3940      N3941   1.429       .  S
N3941      O3945   1.262       .  A
N3941      O3946   1.262       .  A
N3944      O3948   1.262       .  A
N3944      O3947   1.262       .  A
C3949      C3954   1.404       .  A
C3949      H3956   1.086       .  S
C3950      C3951   1.414       .  A
C3951      C3952   1.398       .  A
C3951      N3958   1.429       .  S
C3952      C3953   1.406       .  A
C3952      H3957   1.086       .  S
C3954      N3955   1.429       .  S
N3955      O3959   1.262       .  A
N3955      O3960   1.262       .  A
N3958      O3962   1.262       .  A
C3963      C3968   1.401       .  A
C3963      H3970   1.088       .  S
C3964      C3965   1.410       .  A
C3965      C3966   1.400       .  A
C3965      N3972   1.429       .  S
C3966      C3967   1.403       .  A
C3966      H3971   1.088       .  S
C3968      N3969   1.429       .  S
N3969      O3973   1.262       .  A
N3969      O3974   1.262       .  A
N3972      O3976   1.262       .  A
N3972      O3975   1.262       .  A
C3977      C3982   1.398       .  A
C3977      H3984   1.087       .  S
C3979      C3980   1.397       .  A
C3979      N3986   1.429       .  S
C3980      H3985   1.087       .  S
C3982      N3983   1.429       .  S
N3983      O3987   1.262       .  A
N3983      O3988   1.262   1_545  A
N3986      O3990   1.262       .  A
N3986      O3989   1.262       .  A
C3991      C3996   1.398       .  A
C3991      H3998   1.087       .  S
C3992      C3993   1.414       .  A
C3993      C3994   1.397       .  A
C3993      N4000   1.429       .  S
C3994      C3995   1.404       .  A
C3994      H3999   1.086       .  S
C3996      N3997   1.429       .  S
N3997      O4001   1.262       .  A
N3997      O4002   1.262       .  A
N4000      O4004   1.261       .  A
N4000      O4003   1.262       .  A
C4005      C4010   1.400       .  A
C4005      H4012   1.086       .  S
C4006      C4007   1.414       .  A
C4007      C4008   1.401       .  A
C4007      N4014   1.429       .  S
C4008      C4009   1.406       .  A
C4008      H4013   1.086       .  S
C4010      N4011   1.429       .  S
N4011      O4015   1.262       .  A
N4011      O4016   1.262       .  A
N4014      O4018   1.262       .  A
N4014      O4017   1.262       .  A
C4019      C4024   1.395       .  A
C4019      H4026   1.088       .  S
C4021      C4022   1.395       .  A
C4021      N4028   1.427       .  S
C4022      H4027   1.087       .  S
C4024      N4025   1.426       .  S
N4025      O4029   1.261       .  A
N4025      O4030   1.262       .  A
N4028      O4032   1.262       .  A
N4028      O4031   1.262       .  A
