geometry optimzed in LAMMPS
_audit_creation_date              2020-11-30 
_audit_creation_method            'lammps2cif' 
_symmetry_space_group_name_H-M    'P1' 
_symmetry_Int_Tables_number       1 
_symmetry_cell_setting            triclinic 
loop_ 
_symmetry_equiv_pos_as_xyz 
  x,y,z 
_cell_length_a                    43.38281831117117 
_cell_length_b                    43.35576225908861 
_cell_length_c                    43.442362332160094 
_cell_angle_alpha                 90.02679401622551 
_cell_angle_beta                  90.00281490780418 
_cell_angle_gamma                 89.76238941504312 
loop_ 
_atom_site_label 
_atom_site_type_symbol 
_atom_site_fract_x 
_atom_site_fract_y 
_atom_site_fract_z 
_atom_site_charge 
O1          O  0.47604605  0.00003676  0.29485949    -0.72400
O2          O  0.47417071  0.49974743  0.20743733    -0.72620
O3          O  0.47576002  0.45600305  0.25153037    -0.72480
O4          O  0.47427125  0.04358397  0.25105638    -0.72490
O5          O  0.02439191  0.04427528  0.25157414    -0.72450
O6          O  0.02577676  0.45659948  0.24858161    -0.72470
O7          O  0.02421035  0.00168805  0.20655191    -0.72410
O8          O  0.02603111  0.49903774  0.29384056    -0.72590
V9          V  0.47603045  0.49982001  0.25117809     1.35240
V10         V  0.02413691  0.50038973  0.25017521     1.35170
C11         C  0.00136555  0.49975346  0.30930976     0.76840
C12         C  0.99892296  0.50112456  0.19212836     0.76890
C13         C  0.50098644  0.44142706  0.24980491     0.76760
C14         C  0.49904694  0.05876716  0.25160105     0.76730
O15         O  0.02530917  0.24898410  0.29432124    -0.72400
O16         O  0.02544854  0.24876967  0.20692207    -0.72620
O17         O  0.02692325  0.29283614  0.25034807    -0.72480
O18         O  0.02382976  0.20521131  0.25064817    -0.72490
O19         O  0.47377835  0.20725999  0.24833998    -0.72450
O20         O  0.47690791  0.29465537  0.25305813    -0.72470
O21         O  0.47554411  0.25348586  0.20685139    -0.72410
O22         O  0.47523552  0.24877579  0.29416598    -0.72590
V23         V  0.02442436  0.24902312  0.25057775     1.35240
V24         V  0.47632707  0.25098135  0.25055625     1.35170
C25         C  0.50022638  0.24824061  0.30912897     0.76840
C26         C  0.50057914  0.25163942  0.19203978     0.76890
C27         C  0.50240526  0.30859792  0.25220514     0.76760
C28         C  0.49827886  0.19141409  0.24921339     0.76730
O29         O  0.22601584  0.50046621  0.29308871    -0.72400
O30         O  0.22530626  0.49731393  0.20577391    -0.72620
O31         O  0.22691628  0.45534472  0.25126245    -0.72480
O32         O  0.22432760  0.04272402  0.24780537    -0.72490
O33         O  0.27430840  0.04388258  0.25103874    -0.72450
O34         O  0.27682687  0.45643619  0.24728997    -0.72470
O35         O  0.27513819  0.50214048  0.20535989    -0.72410
O36         O  0.27597760  0.49840515  0.29264843    -0.72590
V37         V  0.22658011  0.49900397  0.24943167     1.35240
V38         V  0.27463387  0.50018678  0.24903470     1.35170
C39         C  0.25112890  0.49894351  0.30782305     0.76840
C40         C  0.25006043  0.50006682  0.19068973     0.76890
C41         C  0.25229146  0.44101277  0.24986532     0.76760
C42         C  0.24888547  0.05816365  0.24981252     0.76730
O43         O  0.27502129  0.25007713  0.29241791    -0.72400
O44         O  0.27495218  0.24749492  0.20501681    -0.72620
O45         O  0.27622028  0.29244671  0.24728120    -0.72480
O46         O  0.27402297  0.20512365  0.25008815    -0.72490
O47         O  0.22405663  0.20645240  0.24647851    -0.72450
O48         O  0.22626081  0.29394165  0.25064157    -0.72470
O49         O  0.22509040  0.25228290  0.20508681    -0.72410
O50         O  0.22492832  0.24821792  0.29225388    -0.72590
V51         V  0.27411227  0.24879980  0.24871146     1.35240
V52         V  0.22602027  0.25018025  0.24865020     1.35170
C53         C  0.24992778  0.24884043  0.30712857     0.76840
C54         C  0.25001893  0.25041056  0.19017848     0.76890
C55         C  0.25163086  0.30808134  0.24867299     0.76760
C56         C  0.24875036  0.19092664  0.24797500     0.76730
O57         O  0.04323257  0.02373760  0.50306056    -0.72400
O58         O  0.45595424  0.02565808  0.99865195    -0.72620
O59         O  0.99744814  0.02457524  0.04446402    -0.72480
O60         O  0.50194758  0.02461773  0.45716263    -0.72490
O61         O  0.99635669  0.47480102  0.45711249    -0.72450
O62         O  0.50107281  0.47457294  0.04436828    -0.72470
O63         O  0.45510207  0.47574644  0.50321581    -0.72410
O64         O  0.04249088  0.47384738  0.99858157    -0.72590
V65         V  0.99961105  0.02373041  0.00080797     1.35240
V66         V  0.49877001  0.47564743  0.00076451     1.35170
C67         C  0.05777028  0.99849376  0.00129831     0.76840
C68         C  0.44066589  0.00106942  0.00137111     0.76890
C69         C  0.99957279  0.99955567  0.05928945     0.76760
C70         C  0.99908383  0.99972425  0.44230452     0.76730
O71         O  0.00133268  0.22370757  0.45702769    -0.72400
O72         O  0.49870799  0.22428431  0.04442338    -0.72620
O73         O  0.45613889  0.22377304  0.49925261    -0.72480
O74         O  0.04373009  0.22417785  0.00207963    -0.72490
O75         O  0.04315991  0.27407704  0.49727124    -0.72450
O76         O  0.45581181  0.27374317  0.00344622    -0.72470
O77         O  0.00226056  0.27424145  0.04401062    -0.72410
O78         O  0.49643163  0.27361105  0.45678209    -0.72590
V79         V  0.49994150  0.22490103  0.50070544     1.35240
V80         V  0.49945598  0.27299595  0.00039520     1.35170
C81         C  0.49844637  0.24853982  0.44203623     0.76840
C82         C  0.50095323  0.24935774  0.05912709     0.76890
C83         C  0.44110799  0.24870599  0.00166049     0.76760
C84         C  0.05833186  0.24917643  0.99915765     0.76730
O85         O  0.24653379  0.02438278  0.45574719    -0.72400
O86         O  0.25065233  0.02400784  0.04295049    -0.72620
O87         O  0.29234974  0.02535625  0.49718222    -0.72480
O88         O  0.20498733  0.02291345  0.00136513    -0.72490
O89         O  0.20656982  0.47307371  0.49677801    -0.72450
O90         O  0.29381543  0.47541203  0.00132283    -0.72470
O91         O  0.24789660  0.47399756  0.04272646    -0.72410
O92         O  0.25246574  0.47458773  0.45539928    -0.72590
V93         V  0.24868120  0.02325008  0.49932029     1.35240
V94         V  0.25017488  0.47518084  0.99906197     1.35170
C95         C  0.24930628  0.49958128  0.44074051     0.76840
C96         C  0.24887750  0.49897086  0.05774059     0.76890
C97         C  0.30794764  0.50073319  0.99905097     0.76760
C98         C  0.19085804  0.49757169  0.99892326     0.76730
O99         O  0.24813526  0.27570763  0.04278760    -0.72400
O100        O  0.25114267  0.27666406  0.45550827    -0.72620
O101        O  0.20588591  0.27618123  0.99755042    -0.72480
O102        O  0.29343652  0.27631180  0.50079866    -0.72490
O103        O  0.29368476  0.22638622  0.99615556    -0.72450
O104        O  0.20629905  0.22616869  0.50103184    -0.72470
O105        O  0.24795581  0.22683099  0.45494776    -0.72410
O106        O  0.25240663  0.22576007  0.04218602    -0.72590
V107        V  0.24964812  0.27529308  0.99914287     1.35240
V108        V  0.25001582  0.22721342  0.49858288     1.35170
C109        C  0.25073013  0.25059312  0.05735315     0.76840
C110        C  0.24994054  0.25191151  0.44019634     0.76890
C111        C  0.19122144  0.25114978  0.99965827     0.76760
C112        C  0.30842456  0.25137326  0.99824428     0.76730
C113        C  0.40717494  0.24871621  0.00183322    -0.06750
C114        C  0.39163970  0.23451586  0.47735665    -0.17870
C115        C  0.35948858  0.23600713  0.47505138     0.10450
C116        C  0.34234707  0.25130304  0.99814084    -0.06670
C117        C  0.35787322  0.26548384  0.02262800    -0.17910
C118        C  0.39002899  0.26404550  0.02490193     0.10480
S119        S  0.34177480  0.21940413  0.44136996    -0.32870
S120        S  0.40773820  0.28081565  0.05849296    -0.32880
H121        H  0.43143789  0.25871203  0.06084510     0.28490
H122        H  0.31822959  0.24166888  0.43894399     0.28490
H123        H  0.40472013  0.22313000  0.45933657     0.19080
H124        H  0.34478447  0.27685473  0.04065273     0.19090
C125        C  0.09231164  0.24928792  0.99829739    -0.06750
C126        C  0.10852183  0.23404691  0.02175903    -0.17870
C127        C  0.14069792  0.23518901  0.02332783     0.10450
C128        C  0.15728219  0.25107900  0.00035544    -0.06670
C129        C  0.14113298  0.26625147  0.47680154    -0.17910
C130        C  0.10890772  0.26519465  0.47530429     0.10480
S131        S  0.15914870  0.21739942  0.05605798    -0.32870
S132        S  0.09042775  0.28304413  0.44263143    -0.32880
H133        H  0.06683407  0.26105830  0.44002156     0.28490
H134        H  0.18256239  0.23956301  0.05881709     0.28490
H135        H  0.09600523  0.22197041  0.03962129     0.19080
H136        H  0.15377919  0.27815172  0.45886419     0.19090
C137        C  0.34186800  0.50135308  0.99909643    -0.06750
C138        C  0.35751186  0.48364687  0.02118010    -0.17870
C139        C  0.38965405  0.48409184  0.02319655     0.10450
C140        C  0.40675293  0.50187849  0.00205683    -0.06670
C141        C  0.39112612  0.01990014  0.48019642    -0.17910
C142        C  0.35893615  0.01953197  0.47823052     0.10480
S143        S  0.40735392  0.46284022  0.05424497    -0.32870
S144        S  0.34121974  0.04121936  0.44749758    -0.32880
H145        H  0.31786589  0.01961807  0.44157575     0.28490
H146        H  0.43080439  0.48448135  0.05970212     0.28490
H147        H  0.34453885  0.47006952  0.03758514     0.19080
H148        H  0.40412536  0.03342855  0.46377464     0.19090
C149        C  0.15684032  0.49681066  0.99948855    -0.06750
C150        C  0.14133073  0.01771141  0.01873298    -0.17870
C151        C  0.10917065  0.01817680  0.02056778     0.10450
C152        C  0.09177626  0.49779872  0.00203757    -0.06670
C153        C  0.10728255  0.47684866  0.48279928    -0.17910
C154        C  0.13949282  0.47612289  0.48135619     0.10480
S155        S  0.09212904  0.04474933  0.04772197    -0.32870
S156        S  0.15706337  0.45019752  0.45410811    -0.32880
H157        H  0.16983472  0.43148189  0.47732395     0.28490
H158        H  0.06775606  0.02545895  0.05648422     0.28490
H159        H  0.15442122  0.03341774  0.03302248     0.19080
H160        H  0.09420730  0.46140757  0.46821215     0.19090
C161        C  0.25137780  0.25045467  0.09127724    -0.06750
C162        C  0.23110443  0.27014921  0.10706542    -0.17870
C163        C  0.23031262  0.27092544  0.13922585     0.10450
C164        C  0.25012635  0.25131808  0.15623969    -0.06670
C165        C  0.27057385  0.23178500  0.14042390    -0.17910
C166        C  0.27154316  0.23124661  0.10825012     0.10480
S167        S  0.20407650  0.29807334  0.15684809    -0.32870
S168        S  0.29981063  0.20645745  0.09036748    -0.32880
H169        H  0.30764792  0.22750134  0.06702985     0.28490
H170        H  0.22380575  0.30630585  0.18110207     0.28490
H171        H  0.21566792  0.28507028  0.09420694     0.19080
H172        H  0.28595699  0.21678043  0.15324601     0.19090
C173        C  0.24976808  0.24900302  0.34089256    -0.06750
C174        C  0.25706842  0.27655306  0.35595267    -0.17870
C175        C  0.25798564  0.27826779  0.38809741     0.10450
C176        C  0.25072230  0.25184241  0.40593916    -0.06670
C177        C  0.24389444  0.22412333  0.39050617    -0.17910
C178        C  0.24332055  0.22239627  0.35835949     0.10480
S179        S  0.26975349  0.31458073  0.40438236    -0.32870
S180        S  0.23607905  0.18507975  0.34139049    -0.32880
H181        H  0.22223322  0.19543114  0.31413480     0.28490
H182        H  0.29261459  0.30109183  0.42310189     0.28490
H183        H  0.26250776  0.29686070  0.34248502     0.19080
H184        H  0.23878183  0.20347438  0.40353140     0.19090
C185        C  0.24824952  0.49913976  0.09173923    -0.06750
C186        C  0.26681284  0.02048456  0.10736067    -0.17870
C187        C  0.26746339  0.02166450  0.13953391     0.10450
C188        C  0.24956545  0.50067105  0.15673814    -0.06670
C189        C  0.23065765  0.47962137  0.14116251    -0.17910
C190        C  0.22958917  0.47879534  0.10897055     0.10480
S191        S  0.29053300  0.05134262  0.15714900    -0.32870
S192        S  0.20296416  0.45223188  0.09142425    -0.32880
H193        H  0.19331045  0.47277770  0.06824525     0.28490
H194        H  0.26936199  0.05792788  0.18081383     0.28490
H195        H  0.28087867  0.03646941  0.09439764     0.19080
H196        H  0.21653911  0.46372686  0.15418123     0.19090
C197        C  0.25113390  0.49821465  0.34192922    -0.06750
C198        C  0.22578452  0.51109946  0.35756226    -0.17870
C199        C  0.22480337  0.51216786  0.38970827     0.10450
C200        C  0.24945512  0.49978311  0.40690871    -0.06670
C201        C  0.27448480  0.48632741  0.39152595    -0.17910
C202        C  0.27557845  0.48523410  0.35936208     0.10480
S203        S  0.19062152  0.02756523  0.40762774    -0.32870
S204        S  0.30807930  0.96561421  0.34234293    -0.32880
H205        H  0.29013348  0.44899021  0.32109848     0.28490
H206        H  0.20660279  0.55078619  0.42350848     0.28490
H207        H  0.20666354  0.52077773  0.34468162     0.19080
H208        H  0.29324073  0.97632856  0.40471901     0.19090
C209        C  0.25312651  0.40705760  0.25102923    -0.06750
C210        C  0.27259228  0.39116490  0.23065623    -0.17870
C211        C  0.27229930  0.35893469  0.22895049     0.10450
C212        C  0.25242930  0.34205624  0.24846139    -0.06670
C213        C  0.23333556  0.35798608  0.26915837    -0.17910
C214        C  0.23390348  0.39015260  0.27107117     0.10480
S215        S  0.29675151  0.34108855  0.20038970    -0.32870
S216        S  0.21092209  0.40809451  0.30074282    -0.32880
H217        H  0.23247563  0.43125982  0.30758965     0.28490
H218        H  0.27646386  0.31703148  0.19305796     0.28490
H219        H  0.28733227  0.40398593  0.21516635     0.19080
H220        H  0.21858903  0.34521601  0.28468776     0.19090
C221        C  0.24796490  0.09207996  0.25053010    -0.06750
C222        C  0.23030341  0.10771330  0.22838675    -0.17870
C223        C  0.23059304  0.13994333  0.22656360     0.10450
C224        C  0.24829803  0.15699882  0.24784092    -0.06670
C225        C  0.26577112  0.14133923  0.27008864    -0.17910
C226        C  0.26543387  0.10917278  0.27195418     0.10480
S227        S  0.20951811  0.15778702  0.19548533    -0.32870
S228        S  0.28651188  0.09140448  0.30308295    -0.32880
H229        H  0.26507083  0.06768612  0.30813522     0.28490
H230        H  0.23114619  0.18127654  0.19015091     0.28490
H231        H  0.21715265  0.09469130  0.21165904     0.19080
H232        H  0.27909780  0.15431645  0.28671311     0.19090
C233        C  0.50170790  0.24981589  0.09314807    -0.06750
C234        C  0.48560510  0.27332637  0.10864910    -0.17870
C235        C  0.48501970  0.27471958  0.14084653     0.10450
C236        C  0.50093052  0.25214145  0.15813022    -0.06670
C237        C  0.01756249  0.22907853  0.14269662    -0.17910
C238        C  0.01799223  0.22750964  0.11055959     0.10480
S239        S  0.46453830  0.30643463  0.15841385    -0.32870
S240        S  0.04055835  0.19704699  0.09340192    -0.32880
H241        H  0.05170024  0.21536321  0.06925823     0.28490
H242        H  0.48515911  0.31011937  0.18310024     0.28490
H243        H  0.47326339  0.29072190  0.09557592     0.19080
H244        H  0.03029670  0.21202462  0.15582283     0.19090
C245        C  0.49985234  0.24726272  0.34311812    -0.06750
C246        C  0.47763948  0.26496896  0.35872935    -0.17870
C247        C  0.47640355  0.26559559  0.39089675     0.10450
C248        C  0.49791297  0.24816860  0.40810590    -0.06670
C249        C  0.01980349  0.23006461  0.39255730    -0.17910
C250        C  0.02097671  0.22932896  0.36037391     0.10480
S251        S  0.44622250  0.28825049  0.40849027    -0.32870
S252        S  0.04926220  0.20424233  0.34293348    -0.32880
H253        H  0.03022377  0.19477156  0.31856503     0.28490
H254        H  0.44056726  0.26738660  0.43259132     0.28490
H255        H  0.46108491  0.27850854  0.34575673     0.19080
H256        H  0.03624002  0.21644674  0.40561570     0.19090
C257        C  0.99999683  0.99968393  0.09321364    -0.06750
C258        C  0.47909604  0.01897399  0.10874168    -0.17870
C259        C  0.47810039  0.02000971  0.14092573     0.10450
C260        C  0.99867399  0.00148088  0.15817648    -0.06670
C261        C  0.01981968  0.48251631  0.14261920    -0.17910
C262        C  0.02054982  0.48113573  0.11048547     0.10480
S263        S  0.45071680  0.04612160  0.15832250    -0.32870
S264        S  0.04858350  0.45552334  0.09330282    -0.32880
H265        H  0.05507565  0.47410166  0.06770756     0.28490
H266        H  0.46935602  0.05402235  0.18349940     0.28490
H267        H  0.46325246  0.03326176  0.09566207     0.19080
H268        H  0.03590965  0.46848737  0.15563337     0.19090
C269        C  0.00166518  0.00010244  0.34344147    -0.06750
C270        C  0.47624598  0.48748822  0.35902137    -0.17870
C271        C  0.47468049  0.48730211  0.39117312     0.10450
C272        C  0.99913078  0.99981867  0.40845574    -0.06670
C273        C  0.02452498  0.01245128  0.39313642    -0.17910
C274        C  0.02612591  0.01279632  0.36095320     0.10480
S275        S  0.44049799  0.47158550  0.40872796    -0.32870
S276        S  0.05976494  0.03033830  0.34412909    -0.32880
H277        H  0.04352074  0.04638492  0.32116962     0.28490
H278        H  0.43962188  0.49255801  0.43338375     0.28490
H279        H  0.45731816  0.47770728  0.34606297     0.19080
H280        H  0.04333246  0.02208388  0.40639961     0.19250
C281        C  0.50145333  0.40745525  0.24975562    -0.06750
C282        C  0.48676129  0.39186393  0.27387544    -0.17870
C283        C  0.48784954  0.35967097  0.27589630     0.10450
C284        C  0.50332220  0.34252654  0.25292512    -0.06670
C285        C  0.01820005  0.35810741  0.22890880    -0.17910
C286        C  0.01706427  0.39031684  0.22686874     0.10480
S287        S  0.47029890  0.34184995  0.30899430    -0.32870
S288        S  0.03414868  0.40812089  0.19356550    -0.32880
H289        H  0.01119759  0.43092872  0.19062560     0.28490
H290        H  0.49216217  0.31793884  0.31146463     0.28490
H291        H  0.47509298  0.40491735  0.29173960     0.19080
H292        H  0.02968296  0.34503736  0.21093938     0.19090
C293        C  0.49826480  0.09264592  0.25163477    -0.06750
C294        C  0.49960651  0.10800558  0.22328910    -0.17870
C295        C  0.49850676  0.14022611  0.22173333     0.10450
C296        C  0.49713864  0.15756289  0.24919411    -0.06670
C297        C  0.99597963  0.14223351  0.27756159    -0.17910
C298        C  0.99611145  0.10998182  0.27909186     0.10480
S299        S  0.49935575  0.15771698  0.18411916    -0.32870
S300        S  0.99434452  0.09259399  0.31675724    -0.32880
H301        H  0.97918160  0.06552617  0.30776933     0.28490
H302        H  0.48169056  0.18382430  0.19180610     0.28490
H303        H  0.50134021  0.09480553  0.20216644     0.19080
H304        H  0.99481431  0.15549623  0.29869357     0.19090
O305        O  0.47604606  0.00003675  0.79485949    -0.72400
O306        O  0.47417070  0.49974742  0.70743733    -0.72620
O307        O  0.47576002  0.45600305  0.75153037    -0.72480
O308        O  0.47427125  0.04358396  0.75105638    -0.72490
O309        O  0.02439191  0.04427527  0.75157414    -0.72450
O310        O  0.02577676  0.45659947  0.74858161    -0.72470
O311        O  0.02421036  0.00168804  0.70655191    -0.72410
O312        O  0.02603111  0.49903773  0.79384056    -0.72590
V313        V  0.47603045  0.49982000  0.75117809     1.35240
V314        V  0.02413691  0.50038973  0.75017521     1.35170
C315        C  0.00136555  0.49975345  0.80930976     0.76840
C316        C  0.99892296  0.50112456  0.69212836     0.76890
C317        C  0.50098643  0.44142706  0.74980490     0.76760
C318        C  0.49904694  0.05876715  0.75160105     0.76730
O319        O  0.02530917  0.24898410  0.79432124    -0.72400
O320        O  0.02544854  0.24876967  0.70692207    -0.72620
O321        O  0.02692324  0.29283613  0.75034807    -0.72480
O322        O  0.02382976  0.20521130  0.75064817    -0.72490
O323        O  0.47377835  0.20725998  0.74833998    -0.72450
O324        O  0.47690791  0.29465536  0.75305813    -0.72470
O325        O  0.47554411  0.25348586  0.70685139    -0.72410
O326        O  0.47523553  0.24877579  0.79416598    -0.72590
V327        V  0.02442436  0.24902311  0.75057775     1.35240
V328        V  0.47632707  0.25098134  0.75055625     1.35170
C329        C  0.50022638  0.24824060  0.80912897     0.76840
C330        C  0.50057915  0.25163941  0.69203978     0.76890
C331        C  0.50240526  0.30859791  0.75220514     0.76760
C332        C  0.49827886  0.19141409  0.74921339     0.76730
O333        O  0.22601583  0.50046620  0.79308871    -0.72400
O334        O  0.22530626  0.49731393  0.70577391    -0.72620
O335        O  0.22691628  0.45534472  0.75126245    -0.72480
O336        O  0.22432760  0.04272402  0.74780537    -0.72490
O337        O  0.27430840  0.04388258  0.75103874    -0.72450
O338        O  0.27682687  0.45643619  0.74728996    -0.72470
O339        O  0.27513819  0.50214048  0.70535989    -0.72410
O340        O  0.27597760  0.49840514  0.79264844    -0.72590
V341        V  0.22658011  0.49900397  0.74943167     1.35240
V342        V  0.27463387  0.50018677  0.74903470     1.35170
C343        C  0.25112890  0.49894350  0.80782305     0.76840
C344        C  0.25006043  0.50006682  0.69068973     0.76890
C345        C  0.25229146  0.44101276  0.74986531     0.76760
C346        C  0.24888547  0.05816364  0.74981252     0.76730
O347        O  0.27502129  0.25007712  0.79241791    -0.72400
O348        O  0.27495219  0.24749491  0.70501681    -0.72620
O349        O  0.27622028  0.29244671  0.74728120    -0.72480
O350        O  0.27402297  0.20512365  0.75008815    -0.72490
O351        O  0.22405664  0.20645240  0.74647851    -0.72450
O352        O  0.22626081  0.29394164  0.75064156    -0.72470
O353        O  0.22509040  0.25228289  0.70508681    -0.72410
O354        O  0.22492832  0.24821792  0.79225388    -0.72590
V355        V  0.27411227  0.24879980  0.74871146     1.35240
V356        V  0.22602027  0.25018024  0.74865020     1.35170
C357        C  0.24992778  0.24884043  0.80712857     0.76840
C358        C  0.25001893  0.25041055  0.69017848     0.76890
C359        C  0.25163086  0.30808133  0.74867299     0.76760
C360        C  0.24875036  0.19092664  0.74797501     0.76730
O361        O  0.04323257  0.02373760  0.00306056    -0.72400
O362        O  0.45595425  0.02565807  0.49865195    -0.72620
O363        O  0.99744814  0.02457523  0.54446402    -0.72480
O364        O  0.50194758  0.02461773  0.95716263    -0.72490
O365        O  0.99635669  0.47480102  0.95711249    -0.72450
O366        O  0.50107280  0.47457295  0.54436828    -0.72470
O367        O  0.45510207  0.47574643  0.00321582    -0.72410
O368        O  0.04249088  0.47384738  0.49858157    -0.72590
V369        V  0.99961105  0.02373040  0.50080798     1.35240
V370        V  0.49877001  0.47564743  0.50076451     1.35170
C371        C  0.05777029  0.99849376  0.50129831     0.76840
C372        C  0.44066590  0.00106941  0.50137111     0.76890
C373        C  0.99957280  0.99955566  0.55928945     0.76760
C374        C  0.99908383  0.99972425  0.94230452     0.76730
O375        O  0.00133268  0.22370758  0.95702769    -0.72400
O376        O  0.49870800  0.22428431  0.54442338    -0.72620
O377        O  0.45613888  0.22377305  0.99925261    -0.72480
O378        O  0.04373009  0.22417785  0.50207963    -0.72490
O379        O  0.04315990  0.27407704  0.99727125    -0.72450
O380        O  0.45581182  0.27374317  0.50344623    -0.72470
O381        O  0.00226057  0.27424144  0.54401062    -0.72410
O382        O  0.49643162  0.27361106  0.95678210    -0.72590
V383        V  0.49994150  0.22490103  0.00070544     1.35240
V384        V  0.49945599  0.27299595  0.50039520     1.35170
C385        C  0.49844637  0.24853982  0.94203623     0.76840
C386        C  0.50095324  0.24935774  0.55912709     0.76890
C387        C  0.44110799  0.24870599  0.50166049     0.76760
C388        C  0.05833187  0.24917643  0.49915765     0.76730
O389        O  0.24653379  0.02438279  0.95574719    -0.72400
O390        O  0.25065233  0.02400784  0.54295049    -0.72620
O391        O  0.29234974  0.02535626  0.99718222    -0.72480
O392        O  0.20498733  0.02291345  0.50136514    -0.72490
O393        O  0.20656982  0.47307370  0.99677801    -0.72450
O394        O  0.29381543  0.47541205  0.50132282    -0.72470
O395        O  0.24789660  0.47399757  0.54272645    -0.72410
O396        O  0.25246574  0.47458771  0.95539928    -0.72590
V397        V  0.24868120  0.02325009  0.99932029     1.35240
V398        V  0.25017489  0.47518085  0.49906197     1.35170
C399        C  0.24930628  0.49958127  0.94074051     0.76840
C400        C  0.24887750  0.49897087  0.55774059     0.76890
C401        C  0.30794764  0.50073320  0.49905097     0.76760
C402        C  0.19085805  0.49757170  0.49892327     0.76730
O403        O  0.24813527  0.27570763  0.54278760    -0.72400
O404        O  0.25114267  0.27666406  0.95550827    -0.72620
O405        O  0.20588592  0.27618123  0.49755042    -0.72480
O406        O  0.29343651  0.27631181  0.00079866    -0.72490
O407        O  0.29368476  0.22638622  0.49615556    -0.72450
O408        O  0.20629905  0.22616869  0.00103184    -0.72470
O409        O  0.24795581  0.22683099  0.95494776    -0.72410
O410        O  0.25240663  0.22576007  0.54218603    -0.72590
V411        V  0.24964812  0.27529307  0.49914287     1.35240
V412        V  0.25001582  0.22721342  0.99858287     1.35170
C413        C  0.25073013  0.25059312  0.55735315     0.76840
C414        C  0.24994054  0.25191151  0.94019634     0.76890
C415        C  0.19122145  0.25114978  0.49965827     0.76760
C416        C  0.30842457  0.25137325  0.49824428     0.76730
C417        C  0.40717495  0.24871621  0.50183323    -0.06750
C418        C  0.39163969  0.23451591  0.97735662    -0.17870
C419        C  0.35948857  0.23600718  0.97505135     0.10450
C420        C  0.34234707  0.25130303  0.49814084    -0.06670
C421        C  0.35787322  0.26548388  0.52262797    -0.17910
C422        C  0.39002899  0.26404554  0.52490190     0.10480
S423        S  0.34177479  0.21940423  0.94136991    -0.32870
S424        S  0.40773821  0.28081575  0.55849291    -0.32880
H425        H  0.43143789  0.25871212  0.56084509     0.28490
H426        H  0.31822958  0.24166898  0.93894398     0.28490
H427        H  0.40472012  0.22313007  0.95933652     0.19080
H428        H  0.34478447  0.27685480  0.54065268     0.19090
C429        C  0.09231164  0.24928791  0.49829739    -0.06750
C430        C  0.10852183  0.23404694  0.52175906    -0.17870
C431        C  0.14069792  0.23518904  0.52332785     0.10450
C432        C  0.15728220  0.25107900  0.50035544    -0.06670
C433        C  0.14113298  0.26625150  0.97680156    -0.17910
C434        C  0.10890772  0.26519469  0.97530432     0.10480
S435        S  0.15914870  0.21739950  0.55605803    -0.32870
S436        S  0.09042774  0.28304422  0.94263148    -0.32880
H437        H  0.06683407  0.26105839  0.94002157     0.28490
H438        H  0.18256240  0.23956310  0.55881710     0.28490
H439        H  0.09600524  0.22197047  0.53962133     0.19080
H440        H  0.15377918  0.27815178  0.95886423     0.19090
C441        C  0.34186800  0.50135310  0.49909643    -0.06750
C442        C  0.35751187  0.48364689  0.52118011    -0.17870
C443        C  0.38965405  0.48409186  0.52319655     0.10450
C444        C  0.40675293  0.50187850  0.50205683    -0.06670
C445        C  0.39112612  0.01990015  0.98019642    -0.17910
C446        C  0.35893614  0.01953198  0.97823052     0.10480
S447        S  0.40735392  0.46284026  0.55424498    -0.32870
S448        S  0.34121974  0.04121937  0.94749758    -0.32880
H449        H  0.31786589  0.01961808  0.94157576     0.28490
H450        H  0.43080439  0.48448138  0.55970213     0.28490
H451        H  0.34453885  0.47006955  0.53758516     0.19080
H452        H  0.40412536  0.03342855  0.96377463     0.19090
C453        C  0.15684032  0.49681066  0.49948855    -0.06750
C454        C  0.14133073  0.01771140  0.51873298    -0.17870
C455        C  0.10917066  0.01817680  0.52056778     0.10450
C456        C  0.09177627  0.49779872  0.50203757    -0.06670
C457        C  0.10728255  0.47684866  0.98279927    -0.17910
C458        C  0.13949282  0.47612288  0.98135619     0.10480
S459        S  0.09212904  0.04474932  0.54772197    -0.32870
S460        S  0.15706337  0.45019752  0.95410810    -0.32880
H461        H  0.16983472  0.43148189  0.97732394     0.28490
H462        H  0.06775606  0.02545894  0.55648422     0.28490
H463        H  0.15442122  0.03341773  0.53302248     0.19080
H464        H  0.09420730  0.46140757  0.96821214     0.19090
C465        C  0.25137780  0.25045467  0.59127724    -0.06750
C466        C  0.23110444  0.27014920  0.60706542    -0.17870
C467        C  0.23031262  0.27092543  0.63922585     0.10450
C468        C  0.25012636  0.25131808  0.65623969    -0.06670
C469        C  0.27057386  0.23178500  0.64042390    -0.17910
C470        C  0.27154316  0.23124661  0.60825012     0.10480
S471        S  0.20407649  0.29807333  0.65684809    -0.32870
S472        S  0.29981064  0.20645746  0.59036748    -0.32880
H473        H  0.30764793  0.22750135  0.56702985     0.28490
H474        H  0.22380574  0.30630585  0.68110207     0.28490
H475        H  0.21566792  0.28507028  0.59420694     0.19080
H476        H  0.28595700  0.21678044  0.65324601     0.19090
C477        C  0.24976808  0.24900302  0.84089256    -0.06750
C478        C  0.25706842  0.27655306  0.85595266    -0.17870
C479        C  0.25798564  0.27826779  0.88809741     0.10450
C480        C  0.25072230  0.25184242  0.90593915    -0.06670
C481        C  0.24389443  0.22412333  0.89050617    -0.17910
C482        C  0.24332055  0.22239627  0.85835949     0.10480
S483        S  0.26975348  0.31458073  0.90438235    -0.32870
S484        S  0.23607905  0.18507974  0.84139049    -0.32880
H485        H  0.22223322  0.19543114  0.81413480     0.28490
H486        H  0.29261459  0.30109183  0.92310189     0.28490
H487        H  0.26250776  0.29686070  0.84248502     0.19080
H488        H  0.23878183  0.20347438  0.90353140     0.19090
C489        C  0.24824952  0.49913976  0.59173923    -0.06750
C490        C  0.26681284  0.02048456  0.60736066    -0.17870
C491        C  0.26746339  0.02166450  0.63953391     0.10450
C492        C  0.24956546  0.50067105  0.65673814    -0.06670
C493        C  0.23065766  0.47962137  0.64116251    -0.17910
C494        C  0.22958917  0.47879534  0.60897055     0.10480
S495        S  0.29053300  0.05134261  0.65714900    -0.32870
S496        S  0.20296417  0.45223188  0.59142424    -0.32880
H497        H  0.19331045  0.47277771  0.56824525     0.28490
H498        H  0.26936199  0.05792787  0.68081382     0.28490
H499        H  0.28087867  0.03646940  0.59439764     0.19080
H500        H  0.21653911  0.46372685  0.65418123     0.19090
C501        C  0.25113390  0.49821464  0.84192922    -0.06750
C502        C  0.22578453  0.51109946  0.85756226    -0.17870
C503        C  0.22480337  0.51216786  0.88970827     0.10450
C504        C  0.24945512  0.49978309  0.90690871    -0.06670
C505        C  0.27448480  0.48632738  0.89152595    -0.17910
C506        C  0.27557844  0.48523407  0.85936207     0.10480
S507        S  0.19062149  0.02756518  0.90762774    -0.32870
S508        S  0.30807933  0.96561426  0.84234293    -0.32880
H509        H  0.29013345  0.44899018  0.82109847     0.28490
H510        H  0.20660282  0.55078621  0.92350846     0.28490
H511        H  0.20666355  0.52077775  0.84468163     0.19080
H512        H  0.29324075  0.97632860  0.90471901     0.19090
C513        C  0.25312651  0.40705759  0.75102922    -0.06750
C514        C  0.27259228  0.39116489  0.73065623    -0.17870
C515        C  0.27229930  0.35893468  0.72895048     0.10450
C516        C  0.25242930  0.34205623  0.74846139    -0.06670
C517        C  0.23333556  0.35798607  0.76915836    -0.17910
C518        C  0.23390348  0.39015259  0.77107116     0.10480
S519        S  0.29675151  0.34108854  0.70038970    -0.32870
S520        S  0.21092209  0.40809451  0.80074282    -0.32880
H521        H  0.23247563  0.43125982  0.80758964     0.28490
H522        H  0.27646386  0.31703147  0.69305796     0.28490
H523        H  0.28733227  0.40398592  0.71516635     0.19080
H524        H  0.21858903  0.34521601  0.78468776     0.19090
C525        C  0.24796491  0.09207996  0.75053010    -0.06750
C526        C  0.23030341  0.10771330  0.72838676    -0.17870
C527        C  0.23059304  0.13994333  0.72656360     0.10450
C528        C  0.24829803  0.15699881  0.74784092    -0.06670
C529        C  0.26577112  0.14133922  0.77008864    -0.17910
C530        C  0.26543388  0.10917277  0.77195418     0.10480
S531        S  0.20951810  0.15778702  0.69548533    -0.32870
S532        S  0.28651189  0.09140448  0.80308294    -0.32880
H533        H  0.26507084  0.06768611  0.80813521     0.28490
H534        H  0.23114619  0.18127653  0.69015091     0.28490
H535        H  0.21715265  0.09469130  0.71165905     0.19080
H536        H  0.27909781  0.15431645  0.78671310     0.19090
C537        C  0.50170791  0.24981588  0.59314807    -0.06750
C538        C  0.48560511  0.27332636  0.60864910    -0.17870
C539        C  0.48501971  0.27471958  0.64084653     0.10450
C540        C  0.50093052  0.25214145  0.65813022    -0.06670
C541        C  0.01756249  0.22907852  0.64269662    -0.17910
C542        C  0.01799223  0.22750963  0.61055959     0.10480
S543        S  0.46453831  0.30643463  0.65841385    -0.32870
S544        S  0.04055835  0.19704698  0.59340193    -0.32880
H545        H  0.05170023  0.21536318  0.56925823     0.28490
H546        H  0.48515912  0.31011936  0.68310024     0.28490
H547        H  0.47326340  0.29072190  0.59557592     0.19080
H548        H  0.03029669  0.21202461  0.65582283     0.19090
C549        C  0.49985234  0.24726272  0.84311812    -0.06750
C550        C  0.47763948  0.26496896  0.85872935    -0.17870
C551        C  0.47640355  0.26559560  0.89089674     0.10450
C552        C  0.49791297  0.24816861  0.90810590    -0.06670
C553        C  0.01980348  0.23006461  0.89255730    -0.17910
C554        C  0.02097670  0.22932896  0.86037391     0.10480
S555        S  0.44622250  0.28825050  0.90849027    -0.32870
S556        S  0.04926219  0.20424233  0.84293348    -0.32880
H557        H  0.03022377  0.19477156  0.81856504     0.28490
H558        H  0.44056727  0.26738662  0.93259131     0.28490
H559        H  0.46108491  0.27850854  0.84575672     0.19080
H560        H  0.03624002  0.21644674  0.90561571     0.19090
C561        C  0.99999683  0.99968392  0.59321364    -0.06750
C562        C  0.47909604  0.01897397  0.60874168    -0.17870
C563        C  0.47810039  0.02000970  0.64092573     0.10450
C564        C  0.99867399  0.00148087  0.65817648    -0.06670
C565        C  0.01981967  0.48251630  0.64261920    -0.17910
C566        C  0.02054982  0.48113573  0.61048547     0.10480
S567        S  0.45071680  0.04612159  0.65832250    -0.32870
S568        S  0.04858350  0.45552334  0.59330282    -0.32880
H569        H  0.05507565  0.47410166  0.56770756     0.28490
H570        H  0.46935602  0.05402233  0.68349940     0.28490
H571        H  0.46325246  0.03326175  0.59566207     0.19080
H572        H  0.03590965  0.46848737  0.65563337     0.19090
C573        C  0.00166518  0.00010243  0.84344147    -0.06750
C574        C  0.47624598  0.48748822  0.85902137    -0.17870
C575        C  0.47468048  0.48730211  0.89117312     0.10450
C576        C  0.99913078  0.99981866  0.90845574    -0.06670
C577        C  0.02452498  0.01245128  0.89313642    -0.17910
C578        C  0.02612591  0.01279632  0.86095320     0.10480
S579        S  0.44049798  0.47158551  0.90872797    -0.32870
S580        S  0.05976494  0.03033830  0.84412910    -0.32880
H581        H  0.04352074  0.04638491  0.82116962     0.28490
H582        H  0.43962188  0.49255802  0.93338376     0.28490
H583        H  0.45731815  0.47770728  0.84606297     0.19080
H584        H  0.04333246  0.02208389  0.90639961     0.19250
C585        C  0.50145333  0.40745525  0.74975561    -0.06750
C586        C  0.48676129  0.39186392  0.77387544    -0.17870
C587        C  0.48784954  0.35967096  0.77589630     0.10450
C588        C  0.50332220  0.34252653  0.75292511    -0.06670
C589        C  0.01820004  0.35810740  0.72890880    -0.17910
C590        C  0.01706427  0.39031683  0.72686874     0.10480
S591        S  0.47029890  0.34184995  0.80899431    -0.32870
S592        S  0.03414867  0.40812088  0.69356550    -0.32880
H593        H  0.01119759  0.43092872  0.69062560     0.28490
H594        H  0.49216218  0.31793884  0.81146463     0.28490
H595        H  0.47509298  0.40491734  0.79173960     0.19080
H596        H  0.02968295  0.34503735  0.71093938     0.19090
C597        C  0.49826480  0.09264592  0.75163477    -0.06750
C598        C  0.49960650  0.10800558  0.72328910    -0.17870
C599        C  0.49850675  0.14022610  0.72173333     0.10450
C600        C  0.49713864  0.15756288  0.74919411    -0.06670
C601        C  0.99597964  0.14223350  0.77756159    -0.17910
C602        C  0.99611146  0.10998181  0.77909186     0.10480
S603        S  0.49935572  0.15771698  0.68411916    -0.32870
S604        S  0.99434453  0.09259398  0.81675724    -0.32880
H605        H  0.97918161  0.06552617  0.80776933     0.28490
H606        H  0.48169054  0.18382430  0.69180610     0.28490
H607        H  0.50134019  0.09480552  0.70216644     0.19080
H608        H  0.99481432  0.15549622  0.79869357     0.19090
O609        O  0.47604604  0.50003677  0.29485948    -0.72400
O610        O  0.47417073  0.99974744  0.20743734    -0.72620
O611        O  0.47576004  0.95600305  0.25153036    -0.72480
O612        O  0.47427123  0.54358397  0.25105636    -0.72490
O613        O  0.02439190  0.54427528  0.25157414    -0.72450
O614        O  0.02577677  0.95659948  0.24858162    -0.72470
O615        O  0.02421034  0.50168805  0.20655190    -0.72410
O616        O  0.02603112  0.99903774  0.29384057    -0.72590
V617        V  0.47603047  0.99982001  0.25117810     1.35240
V618        V  0.02413692  0.00038973  0.25017522     1.35170
C619        C  0.00136555  0.99975346  0.30930977     0.76840
C620        C  0.99892298  0.00112457  0.19212837     0.76890
C621        C  0.50098645  0.94142706  0.24980491     0.76760
C622        C  0.49904692  0.55876716  0.25160104     0.76730
O623        O  0.02530918  0.74898411  0.29432124    -0.72400
O624        O  0.02544854  0.74876967  0.20692207    -0.72620
O625        O  0.02692325  0.79283614  0.25034807    -0.72480
O626        O  0.02382976  0.70521131  0.25064818    -0.72490
O627        O  0.47377834  0.70726000  0.24833997    -0.72450
O628        O  0.47690791  0.79465537  0.25305814    -0.72470
O629        O  0.47554411  0.75348587  0.20685140    -0.72410
O630        O  0.47523553  0.74877579  0.29416598    -0.72590
V631        V  0.02442436  0.74902312  0.25057775     1.35240
V632        V  0.47632706  0.75098135  0.25055625     1.35170
C633        C  0.50022638  0.74824061  0.30912897     0.76840
C634        C  0.50057914  0.75163942  0.19203978     0.76890
C635        C  0.50240527  0.80859792  0.25220514     0.76760
C636        C  0.49827885  0.69141410  0.24921339     0.76730
O637        O  0.22601584  0.00046620  0.29308871    -0.72400
O638        O  0.22530627  0.99731393  0.20577391    -0.72620
O639        O  0.22691629  0.95534472  0.25126245    -0.72480
O640        O  0.22432760  0.54272403  0.24780537    -0.72490
O641        O  0.27430840  0.54388258  0.25103874    -0.72450
O642        O  0.27682688  0.95643620  0.24728997    -0.72470
O643        O  0.27513819  0.00214049  0.20535989    -0.72410
O644        O  0.27597761  0.99840515  0.29264844    -0.72590
V645        V  0.22658012  0.99900397  0.24943167     1.35240
V646        V  0.27463388  0.00018678  0.24903470     1.35170
C647        C  0.25112891  0.99894350  0.30782305     0.76840
C648        C  0.25006044  0.00006682  0.19068973     0.76890
C649        C  0.25229148  0.94101277  0.24986531     0.76760
C650        C  0.24888547  0.55816365  0.24981252     0.76730
O651        O  0.27502130  0.75007713  0.29241791    -0.72400
O652        O  0.27495220  0.74749492  0.20501681    -0.72620
O653        O  0.27622030  0.79244671  0.24728119    -0.72480
O654        O  0.27402298  0.70512365  0.25008815    -0.72490
O655        O  0.22405665  0.70645241  0.24647851    -0.72450
O656        O  0.22626083  0.79394165  0.25064156    -0.72470
O657        O  0.22509042  0.75228290  0.20508681    -0.72410
O658        O  0.22492834  0.74821793  0.29225388    -0.72590
V659        V  0.27411228  0.74879980  0.24871146     1.35240
V660        V  0.22602028  0.75018025  0.24865020     1.35170
C661        C  0.24992779  0.74884043  0.30712856     0.76840
C662        C  0.25001895  0.75041056  0.19017848     0.76890
C663        C  0.25163088  0.80808134  0.24867299     0.76760
C664        C  0.24875037  0.69092664  0.24797500     0.76730
O665        O  0.04323256  0.52373761  0.50306056    -0.72400
O666        O  0.45595423  0.52565807  0.99865195    -0.72620
O667        O  0.99744812  0.52457523  0.04446402    -0.72480
O668        O  0.50194758  0.52461774  0.45716263    -0.72490
O669        O  0.99635670  0.97480102  0.45711249    -0.72450
O670        O  0.50107281  0.97457295  0.04436829    -0.72470
O671        O  0.45510208  0.97574644  0.50321582    -0.72410
O672        O  0.04249089  0.97384738  0.99858158    -0.72590
V673        V  0.99961104  0.52373040  0.00080797     1.35240
V674        V  0.49877001  0.97564743  0.00076452     1.35170
C675        C  0.05777028  0.49849377  0.00129830     0.76840
C676        C  0.44066589  0.50106940  0.00137111     0.76890
C677        C  0.99957279  0.49955566  0.05928945     0.76760
C678        C  0.99908382  0.49972425  0.44230451     0.76730
O679        O  0.00133267  0.72370758  0.45702769    -0.72400
O680        O  0.49870799  0.72428431  0.04442338    -0.72620
O681        O  0.45613888  0.72377305  0.49925261    -0.72480
O682        O  0.04373009  0.72417786  0.00207964    -0.72490
O683        O  0.04315990  0.77407705  0.49727125    -0.72450
O684        O  0.45581181  0.77374317  0.00344622    -0.72470
O685        O  0.00226057  0.77424145  0.04401062    -0.72410
O686        O  0.49643162  0.77361107  0.45678210    -0.72590
V687        V  0.49994150  0.72490103  0.50070543     1.35240
V688        V  0.49945598  0.77299596  0.00039520     1.35170
C689        C  0.49844637  0.74853983  0.44203623     0.76840
C690        C  0.50095323  0.74935774  0.05912709     0.76890
C691        C  0.44110799  0.74870599  0.00166048     0.76760
C692        C  0.05833186  0.74917644  0.99915765     0.76730
O693        O  0.24653378  0.52438280  0.45574719    -0.72400
O694        O  0.25065233  0.52400784  0.04295049    -0.72620
O695        O  0.29234973  0.52535626  0.49718222    -0.72480
O696        O  0.20498732  0.52291345  0.00136513    -0.72490
O697        O  0.20656983  0.97307370  0.49677801    -0.72450
O698        O  0.29381544  0.97541204  0.00132282    -0.72470
O699        O  0.24789662  0.97399757  0.04272646    -0.72410
O700        O  0.25246575  0.97458771  0.45539928    -0.72590
V701        V  0.24868119  0.52325010  0.49932029     1.35240
V702        V  0.25017490  0.97518085  0.99906197     1.35170
C703        C  0.24930628  0.99958127  0.44074051     0.76840
C704        C  0.24887751  0.99897087  0.05774060     0.76890
C705        C  0.30794765  0.00073320  0.99905097     0.76760
C706        C  0.19085805  0.99757169  0.99892327     0.76730
O707        O  0.24813526  0.77570764  0.04278759    -0.72400
O708        O  0.25114266  0.77666407  0.45550827    -0.72620
O709        O  0.20588591  0.77618125  0.99755042    -0.72480
O710        O  0.29343651  0.77631181  0.50079866    -0.72490
O711        O  0.29368476  0.72638623  0.99615556    -0.72450
O712        O  0.20629905  0.72616869  0.50103184    -0.72470
O713        O  0.24795581  0.72683100  0.45494775    -0.72410
O714        O  0.25240663  0.72576008  0.04218602    -0.72590
V715        V  0.24964812  0.77529309  0.99914287     1.35240
V716        V  0.25001581  0.72721343  0.49858287     1.35170
C717        C  0.25073013  0.75059313  0.05735315     0.76840
C718        C  0.24994054  0.75191153  0.44019634     0.76890
C719        C  0.19122144  0.75114980  0.99965828     0.76760
C720        C  0.30842456  0.75137327  0.99824427     0.76730
C721        C  0.40717494  0.74871622  0.00183322    -0.06750
C722        C  0.39163969  0.73451590  0.47735662    -0.17870
C723        C  0.35948857  0.73600717  0.47505135     0.10450
C724        C  0.34234707  0.75130304  0.99814084    -0.06670
C725        C  0.35787322  0.76548389  0.02262797    -0.17910
C726        C  0.39002899  0.76404555  0.02490190     0.10480
S727        S  0.34177479  0.71940423  0.44136991    -0.32870
S728        S  0.40773820  0.78081575  0.05849291    -0.32880
H729        H  0.43143789  0.75871212  0.06084509     0.28490
H730        H  0.31822958  0.74166898  0.43894397     0.28490
H731        H  0.40472012  0.72313006  0.45933653     0.19080
H732        H  0.34478447  0.77685480  0.04065268     0.19090
C733        C  0.09231164  0.74928792  0.99829740    -0.06750
C734        C  0.10852183  0.73404696  0.02175907    -0.17870
C735        C  0.14069792  0.73518906  0.02332786     0.10450
C736        C  0.15728219  0.75107902  0.00035544    -0.06670
C737        C  0.14113297  0.76625156  0.47680160    -0.17910
C738        C  0.10890772  0.76519475  0.47530435     0.10480
S739        S  0.15914870  0.71739953  0.05605804    -0.32870
S740        S  0.09042774  0.78304435  0.44263155    -0.32880
H741        H  0.06683408  0.76105852  0.44002158     0.28490
H742        H  0.18256240  0.73956312  0.05881711     0.28490
H743        H  0.09600524  0.72197050  0.03962134     0.19080
H744        H  0.15377918  0.77815188  0.45886429     0.19090
C745        C  0.34186801  0.00135310  0.99909643    -0.06750
C746        C  0.35751187  0.98364690  0.02118011    -0.17870
C747        C  0.38965406  0.98409187  0.02319656     0.10450
C748        C  0.40675294  0.00187851  0.00205684    -0.06670
C749        C  0.39112611  0.51990014  0.48019642    -0.17910
C750        C  0.35893614  0.51953198  0.47823052     0.10480
S751        S  0.40735392  0.96284027  0.05424499    -0.32870
S752        S  0.34121973  0.54121936  0.44749757    -0.32880
H753        H  0.31786589  0.51961807  0.44157575     0.28490
H754        H  0.43080440  0.98448140  0.05970213     0.28490
H755        H  0.34453885  0.97006956  0.03758516     0.19080
H756        H  0.40412535  0.53342855  0.46377463     0.19090
C757        C  0.15684033  0.99681065  0.99948856    -0.06750
C758        C  0.14133072  0.51771141  0.01873298    -0.17870
C759        C  0.10917065  0.51817680  0.02056779     0.10450
C760        C  0.09177627  0.99779871  0.00203758    -0.06670
C761        C  0.10728255  0.97684863  0.48279929    -0.17910
C762        C  0.13949283  0.97612286  0.48135621     0.10480
S763        S  0.09212903  0.54474931  0.04772199    -0.32870
S764        S  0.15706338  0.95019747  0.45410814    -0.32880
H765        H  0.16983473  0.93148186  0.47732400     0.28490
H766        H  0.06775604  0.52545893  0.05648422     0.28490
H767        H  0.15442122  0.53341772  0.03302249     0.19080
H768        H  0.09420731  0.96140754  0.46821217     0.19090
C769        C  0.25137781  0.75045468  0.09127724    -0.06750
C770        C  0.23110445  0.77014922  0.10706542    -0.17870
C771        C  0.23031263  0.77092545  0.13922585     0.10450
C772        C  0.25012637  0.75131809  0.15623968    -0.06670
C773        C  0.27057386  0.73178500  0.14042389    -0.17910
C774        C  0.27154316  0.73124661  0.10825012     0.10480
S775        S  0.20407652  0.79807335  0.15684809    -0.32870
S776        S  0.29981063  0.70645745  0.09036747    -0.32880
H777        H  0.30764792  0.72750134  0.06702984     0.28490
H778        H  0.22380577  0.80630586  0.18110208     0.28490
H779        H  0.21566794  0.78507030  0.09420694     0.19080
H780        H  0.28595700  0.71678043  0.15324600     0.19090
C781        C  0.24976809  0.74900303  0.34089256    -0.06750
C782        C  0.25706838  0.77655309  0.35595266    -0.17870
C783        C  0.25798559  0.77826782  0.38809741     0.10450
C784        C  0.25072230  0.75184243  0.40593915    -0.06670
C785        C  0.24389448  0.72412333  0.39050617    -0.17910
C786        C  0.24332061  0.72239627  0.35835948     0.10480
S787        S  0.26975336  0.81458078  0.40438235    -0.32870
S788        S  0.23607915  0.68507974  0.34139048    -0.32880
H789        H  0.22223330  0.69543112  0.31413481     0.28490
H790        H  0.29261451  0.80109193  0.42310187     0.28490
H791        H  0.26250768  0.79686073  0.34248501     0.19080
H792        H  0.23878191  0.70347437  0.40353140     0.19090
C793        C  0.24824953  0.99913976  0.09173923    -0.06750
C794        C  0.26681283  0.52048455  0.10736066    -0.17870
C795        C  0.26746338  0.52166449  0.13953391     0.10450
C796        C  0.24956546  0.00067105  0.15673814    -0.06670
C797        C  0.23065767  0.97962136  0.14116251    -0.17910
C798        C  0.22958918  0.97879534  0.10897055     0.10480
S799        S  0.29053300  0.55134260  0.15714900    -0.32870
S800        S  0.20296419  0.95223187  0.09142425    -0.32880
H801        H  0.19331046  0.97277769  0.06824525     0.28490
H802        H  0.26936200  0.55792787  0.18081382     0.28490
H803        H  0.28087867  0.53646939  0.09439764     0.19080
H804        H  0.21653913  0.96372685  0.15418123     0.19090
C805        C  0.25113391  0.99821464  0.34192922    -0.06750
C806        C  0.22578452  0.01109943  0.35756226    -0.17870
C807        C  0.22480336  0.01216783  0.38970828     0.10450
C808        C  0.24945512  0.99978309  0.40690871    -0.06670
C809        C  0.27448482  0.98632741  0.39152595    -0.17910
C810        C  0.27557847  0.98523411  0.35936208     0.10480
S811        S  0.19062154  0.52756530  0.40762774    -0.32870
S812        S  0.30807927  0.46561418  0.34234293    -0.32880
H813        H  0.29013353  0.94899022  0.32109849     0.28490
H814        H  0.20660275  0.05078612  0.42350850     0.28490
H815        H  0.20666353  0.02077768  0.34468163     0.19080
H816        H  0.29324071  0.47632854  0.40471901     0.19090
C817        C  0.25312653  0.90705760  0.25102923    -0.06750
C818        C  0.27259229  0.89116490  0.23065622    -0.17870
C819        C  0.27229932  0.85893469  0.22895048     0.10450
C820        C  0.25242932  0.84205624  0.24846139    -0.06670
C821        C  0.23333558  0.85798608  0.26915837    -0.17910
C822        C  0.23390350  0.89015260  0.27107117     0.10480
S823        S  0.29675152  0.84108855  0.20038969    -0.32870
S824        S  0.21092212  0.90809451  0.30074283    -0.32880
H825        H  0.23247566  0.93125982  0.30758965     0.28490
H826        H  0.27646388  0.81703147  0.19305796     0.28490
H827        H  0.28733229  0.90398593  0.21516634     0.19080
H828        H  0.21858906  0.84521601  0.28468776     0.19090
C829        C  0.24796491  0.59207996  0.25053009    -0.06750
C830        C  0.23030341  0.60771330  0.22838675    -0.17870
C831        C  0.23059304  0.63994333  0.22656360     0.10450
C832        C  0.24829804  0.65699882  0.24784092    -0.06670
C833        C  0.26577113  0.64133923  0.27008863    -0.17910
C834        C  0.26543388  0.60917278  0.27195418     0.10480
S835        S  0.20951811  0.65778703  0.19548533    -0.32870
S836        S  0.28651190  0.59140448  0.30308294    -0.32880
H837        H  0.26507084  0.56768612  0.30813521     0.28490
H838        H  0.23114620  0.68127654  0.19015091     0.28490
H839        H  0.21715265  0.59469131  0.21165904     0.19080
H840        H  0.27909782  0.65431645  0.28671310     0.19090
C841        C  0.50170790  0.74981589  0.09314807    -0.06750
C842        C  0.48560511  0.77332637  0.10864910    -0.17870
C843        C  0.48501971  0.77471959  0.14084653     0.10450
C844        C  0.50093051  0.75214145  0.15813022    -0.06670
C845        C  0.01756247  0.72907852  0.14269662    -0.17910
C846        C  0.01799221  0.72750963  0.11055959     0.10480
S847        S  0.46453833  0.80643465  0.15841385    -0.32870
S848        S  0.04055832  0.69704696  0.09340193    -0.32880
H849        H  0.05170022  0.71536317  0.06925824     0.28490
H850        H  0.48515914  0.81011937  0.18310024     0.28490
H851        H  0.47326341  0.79072192  0.09557592     0.19080
H852        H  0.03029666  0.71202460  0.15582283     0.19090
C853        C  0.49985234  0.74726273  0.34311812    -0.06750
C854        C  0.47763948  0.76496897  0.35872935    -0.17870
C855        C  0.47640355  0.76559560  0.39089674     0.10450
C856        C  0.49791297  0.74816862  0.40810590    -0.06670
C857        C  0.01980350  0.73006464  0.39255730    -0.17910
C858        C  0.02097672  0.72932899  0.36037392     0.10480
S859        S  0.44622249  0.78825048  0.40849026    -0.32870
S860        S  0.04926223  0.70424238  0.34293349    -0.32880
H861        H  0.03022381  0.69477159  0.31856504     0.28490
H862        H  0.44056726  0.76738660  0.43259132     0.28490
H863        H  0.46108490  0.77850854  0.34575672     0.19080
H864        H  0.03624004  0.71644678  0.40561571     0.19090
C865        C  0.99999682  0.49968392  0.09321364    -0.06750
C866        C  0.47909602  0.51897396  0.10874167    -0.17870
C867        C  0.47810036  0.52000969  0.14092573     0.10450
C868        C  0.99867398  0.50148087  0.15817647    -0.06670
C869        C  0.01981968  0.98251631  0.14261920    -0.17910
C870        C  0.02054983  0.98113574  0.11048548     0.10480
S871        S  0.45071676  0.54612157  0.15832249    -0.32870
S872        S  0.04858350  0.95552334  0.09330282    -0.32880
H873        H  0.05507566  0.97410167  0.06770757     0.28490
H874        H  0.46935596  0.55402232  0.18349939     0.28490
H875        H  0.46325243  0.53326174  0.09566206     0.19080
H876        H  0.03590966  0.96848737  0.15563337     0.19090
C877        C  0.00166517  0.50010244  0.34344146    -0.06750
C878        C  0.47624600  0.98748820  0.35902138    -0.17870
C879        C  0.47468050  0.98730209  0.39117312     0.10450
C880        C  0.99913077  0.49981867  0.40845573    -0.06670
C881        C  0.02452499  0.51245126  0.39313641    -0.17910
C882        C  0.02612592  0.51279630  0.36095320     0.10480
S883        S  0.44049801  0.97158546  0.40872797    -0.32870
S884        S  0.05976497  0.53033824  0.34412909    -0.32880
H885        H  0.04352079  0.54638488  0.32116962     0.28490
H886        H  0.43962189  0.99255798  0.43338375     0.28490
H887        H  0.45731818  0.97770724  0.34606297     0.19080
H888        H  0.04333247  0.52208385  0.40639961     0.19250
C889        C  0.50145334  0.90745525  0.24975562    -0.06750
C890        C  0.48676132  0.89186393  0.27387545    -0.17870
C891        C  0.48784957  0.85967097  0.27589631     0.10450
C892        C  0.50332221  0.84252654  0.25292511    -0.06670
C893        C  0.01820004  0.85810741  0.22890879    -0.17910
C894        C  0.01706426  0.89031684  0.22686873     0.10480
S895        S  0.47029894  0.84184995  0.30899433    -0.32870
S896        S  0.03414865  0.90812089  0.19356548    -0.32880
H897        H  0.01119756  0.93092873  0.19062560     0.28490
H898        H  0.49216222  0.81793884  0.31146463     0.28490
H899        H  0.47509302  0.90491735  0.29173962     0.19080
H900        H  0.02968294  0.84503736  0.21093936     0.19090
C901        C  0.49826478  0.59264592  0.25163476    -0.06750
C902        C  0.49960642  0.60800559  0.22328909    -0.17870
C903        C  0.49850667  0.64022611  0.22173332     0.10450
C904        C  0.49713863  0.65756289  0.24919410    -0.06670
C905        C  0.99597969  0.64223351  0.27756159    -0.17910
C906        C  0.99611151  0.60998182  0.27909186     0.10480
S907        S  0.49935558  0.65771699  0.18411915    -0.32870
S908        S  0.99434464  0.59259399  0.31675724    -0.32880
H909        H  0.97918169  0.56552618  0.30776935     0.28490
H910        H  0.48169043  0.68382432  0.19180613     0.28490
H911        H  0.50134007  0.59480553  0.20216642     0.19080
H912        H  0.99481442  0.65549622  0.29869357     0.19090
O913        O  0.47604604  0.50003676  0.79485948    -0.72400
O914        O  0.47417073  0.99974743  0.70743734    -0.72620
O915        O  0.47576004  0.95600305  0.75153036    -0.72480
O916        O  0.47427123  0.54358396  0.75105636    -0.72490
O917        O  0.02439190  0.54427527  0.75157414    -0.72450
O918        O  0.02577678  0.95659947  0.74858162    -0.72470
O919        O  0.02421034  0.50168805  0.70655190    -0.72410
O920        O  0.02603112  0.99903774  0.79384057    -0.72590
V921        V  0.47603047  0.99982000  0.75117810     1.35240
V922        V  0.02413692  0.00038973  0.75017522     1.35170
C923        C  0.00136555  0.99975345  0.80930977     0.76840
C924        C  0.99892298  0.00112456  0.69212837     0.76890
C925        C  0.50098646  0.94142705  0.74980491     0.76760
C926        C  0.49904691  0.55876715  0.75160104     0.76730
O927        O  0.02530918  0.74898410  0.79432124    -0.72400
O928        O  0.02544855  0.74876966  0.70692207    -0.72620
O929        O  0.02692326  0.79283613  0.75034807    -0.72480
O930        O  0.02382976  0.70521130  0.75064818    -0.72490
O931        O  0.47377834  0.70725999  0.74833997    -0.72450
O932        O  0.47690791  0.79465536  0.75305814    -0.72470
O933        O  0.47554411  0.75348587  0.70685139    -0.72410
O934        O  0.47523552  0.74877579  0.79416598    -0.72590
V935        V  0.02442437  0.74902311  0.75057775     1.35240
V936        V  0.47632706  0.75098135  0.75055625     1.35170
C937        C  0.50022638  0.74824060  0.80912897     0.76840
C938        C  0.50057914  0.75163941  0.69203978     0.76890
C939        C  0.50240527  0.80859791  0.75220514     0.76760
C940        C  0.49827885  0.69141409  0.74921339     0.76730
O941        O  0.22601584  0.00046620  0.79308871    -0.72400
O942        O  0.22530627  0.99731393  0.70577391    -0.72620
O943        O  0.22691629  0.95534471  0.75126245    -0.72480
O944        O  0.22432760  0.54272402  0.74780537    -0.72490
O945        O  0.27430840  0.54388257  0.75103874    -0.72450
O946        O  0.27682688  0.95643619  0.74728997    -0.72470
O947        O  0.27513819  0.00214048  0.70535989    -0.72410
O948        O  0.27597761  0.99840515  0.79264844    -0.72590
V949        V  0.22658012  0.99900397  0.74943167     1.35240
V950        V  0.27463388  0.00018678  0.74903470     1.35170
C951        C  0.25112891  0.99894350  0.80782305     0.76840
C952        C  0.25006044  0.00006681  0.69068973     0.76890
C953        C  0.25229148  0.94101276  0.74986531     0.76760
C954        C  0.24888547  0.55816364  0.74981252     0.76730
O955        O  0.27502130  0.75007712  0.79241791    -0.72400
O956        O  0.27495219  0.74749491  0.70501681    -0.72620
O957        O  0.27622029  0.79244671  0.74728119    -0.72480
O958        O  0.27402298  0.70512365  0.75008815    -0.72490
O959        O  0.22405664  0.70645240  0.74647851    -0.72450
O960        O  0.22626082  0.79394164  0.75064156    -0.72470
O961        O  0.22509041  0.75228290  0.70508681    -0.72410
O962        O  0.22492833  0.74821792  0.79225388    -0.72590
V963        V  0.27411228  0.74879980  0.74871146     1.35240
V964        V  0.22602028  0.75018024  0.74865020     1.35170
C965        C  0.24992779  0.74884043  0.80712856     0.76840
C966        C  0.25001894  0.75041055  0.69017848     0.76890
C967        C  0.25163087  0.80808133  0.74867299     0.76760
C968        C  0.24875037  0.69092664  0.74797500     0.76730
O969        O  0.04323256  0.52373760  0.00306056    -0.72400
O970        O  0.45595424  0.52565808  0.49865194    -0.72620
O971        O  0.99744813  0.52457523  0.54446402    -0.72480
O972        O  0.50194757  0.52461773  0.95716263    -0.72490
O973        O  0.99635670  0.97480102  0.95711249    -0.72450
O974        O  0.50107281  0.97457295  0.54436828    -0.72470
O975        O  0.45510208  0.97574644  0.00321582    -0.72410
O976        O  0.04249089  0.97384738  0.49858158    -0.72590
V977        V  0.99961104  0.52373041  0.50080797     1.35240
V978        V  0.49877001  0.97564743  0.50076452     1.35170
C979        C  0.05777028  0.49849377  0.50129830     0.76840
C980        C  0.44066589  0.50106941  0.50137111     0.76890
C981        C  0.99957279  0.49955566  0.55928945     0.76760
C982        C  0.99908382  0.49972424  0.94230451     0.76730
O983        O  0.00133268  0.72370758  0.95702769    -0.72400
O984        O  0.49870799  0.72428431  0.54442338    -0.72620
O985        O  0.45613888  0.72377305  0.99925261    -0.72480
O986        O  0.04373009  0.72417786  0.50207963    -0.72490
O987        O  0.04315990  0.77407705  0.99727125    -0.72450
O988        O  0.45581180  0.77374317  0.50344623    -0.72470
O989        O  0.00226056  0.77424144  0.54401062    -0.72410
O990        O  0.49643162  0.77361106  0.95678209    -0.72590
V991        V  0.49994150  0.72490103  0.00070543     1.35240
V992        V  0.49945598  0.77299596  0.50039520     1.35170
C993        C  0.49844637  0.74853983  0.94203623     0.76840
C994        C  0.50095323  0.74935774  0.55912709     0.76890
C995        C  0.44110799  0.74870598  0.50166049     0.76760
C996        C  0.05833186  0.74917644  0.49915765     0.76730
O997        O  0.24653378  0.52438279  0.95574719    -0.72400
O998        O  0.25065233  0.52400785  0.54295049    -0.72620
O999        O  0.29234973  0.52535624  0.99718222    -0.72480
O1000       O  0.20498732  0.52291346  0.50136514    -0.72490
O1001       O  0.20656983  0.97307370  0.99677802    -0.72450
O1002       O  0.29381544  0.97541204  0.50132282    -0.72470
O1003       O  0.24789662  0.97399756  0.54272646    -0.72410
O1004       O  0.25246575  0.97458772  0.95539928    -0.72590
V1005       V  0.24868119  0.52325008  0.99932029     1.35240
V1006       V  0.25017490  0.97518084  0.49906197     1.35170
C1007       C  0.24930628  0.99958127  0.94074051     0.76840
C1008       C  0.24887751  0.99897086  0.55774059     0.76890
C1009       C  0.30794765  0.00073319  0.49905097     0.76760
C1010       C  0.19085805  0.99757168  0.49892327     0.76730
O1011       O  0.24813526  0.77570764  0.54278760    -0.72400
O1012       O  0.25114266  0.77666407  0.95550826    -0.72620
O1013       O  0.20588591  0.77618124  0.49755042    -0.72480
O1014       O  0.29343651  0.77631182  0.00079865    -0.72490
O1015       O  0.29368476  0.72638623  0.49615556    -0.72450
O1016       O  0.20629904  0.72616870  0.00103184    -0.72470
O1017       O  0.24795580  0.72683100  0.95494776    -0.72410
O1018       O  0.25240663  0.72576007  0.54218602    -0.72590
V1019       V  0.24964812  0.77529308  0.49914287     1.35240
V1020       V  0.25001581  0.72721343  0.99858287     1.35170
C1021       C  0.25073013  0.75059312  0.55735315     0.76840
C1022       C  0.24994053  0.75191153  0.94019634     0.76890
C1023       C  0.19122144  0.75114979  0.49965827     0.76760
C1024       C  0.30842456  0.75137326  0.49824428     0.76730
C1025       C  0.40717494  0.74871621  0.50183322    -0.06750
C1026       C  0.39163969  0.73451588  0.97735664    -0.17870
C1027       C  0.35948857  0.73600715  0.97505137     0.10450
C1028       C  0.34234707  0.75130304  0.49814084    -0.06670
C1029       C  0.35787322  0.76548384  0.52262800    -0.17910
C1030       C  0.39002899  0.76404550  0.52490193     0.10480
S1031       S  0.34177479  0.71940415  0.94136995    -0.32870
S1032       S  0.40773820  0.78081565  0.55849296    -0.32880
H1033       H  0.43143789  0.75871203  0.56084510     0.28490
H1034       H  0.31822959  0.74166890  0.93894398     0.28490
H1035       H  0.40472012  0.72313001  0.95933656     0.19080
H1036       H  0.34478447  0.77685474  0.54065273     0.19090
C1037       C  0.09231163  0.74928793  0.49829739    -0.06750
C1038       C  0.10852183  0.73404687  0.52175900    -0.17870
C1039       C  0.14069792  0.73518896  0.52332780     0.10450
C1040       C  0.15728219  0.75107901  0.50035544    -0.06670
C1041       C  0.14113298  0.76625147  0.97680154    -0.17910
C1042       C  0.10890772  0.76519465  0.97530429     0.10480
S1043       S  0.15914869  0.71739931  0.55605791    -0.32870
S1044       S  0.09042774  0.78304413  0.94263143    -0.32880
H1045       H  0.06683406  0.76105830  0.94002156     0.28490
H1046       H  0.18256238  0.73956290  0.55881708     0.28490
H1047       H  0.09600523  0.72197033  0.53962122     0.19080
H1048       H  0.15377918  0.77815172  0.95886419     0.19090
C1049       C  0.34186801  0.00135309  0.49909643    -0.06750
C1050       C  0.35751187  0.98364688  0.52118011    -0.17870
C1051       C  0.38965406  0.98409186  0.52319656     0.10450
C1052       C  0.40675294  0.00187850  0.50205684    -0.06670
C1053       C  0.39112611  0.51990013  0.98019642    -0.17910
C1054       C  0.35893614  0.51953197  0.97823052     0.10480
S1055       S  0.40735392  0.96284025  0.55424499    -0.32870
S1056       S  0.34121973  0.54121936  0.94749758    -0.32880
H1057       H  0.31786589  0.51961807  0.94157575     0.28490
H1058       H  0.43080440  0.98448138  0.55970213     0.28490
H1059       H  0.34453886  0.97006954  0.53758516     0.19080
H1060       H  0.40412535  0.53342855  0.96377464     0.19090
C1061       C  0.15684033  0.99681064  0.49948856    -0.06750
C1062       C  0.14133072  0.51771141  0.51873298    -0.17870
C1063       C  0.10917065  0.51817680  0.52056779     0.10450
C1064       C  0.09177627  0.99779871  0.50203758    -0.06670
C1065       C  0.10728255  0.97684863  0.98279930    -0.17910
C1066       C  0.13949283  0.97612285  0.98135622     0.10480
S1067       S  0.09212903  0.54474932  0.54772199    -0.32870
S1068       S  0.15706338  0.95019746  0.95410816    -0.32880
H1069       H  0.16983473  0.93148186  0.97732402     0.28490
H1070       H  0.06775604  0.52545893  0.55648422     0.28490
H1071       H  0.15442122  0.53341773  0.53302249     0.19080
H1072       H  0.09420731  0.96140753  0.96821218     0.19090
C1073       C  0.25137780  0.75045467  0.59127724    -0.06750
C1074       C  0.23110444  0.77014921  0.60706542    -0.17870
C1075       C  0.23031262  0.77092544  0.63922585     0.10450
C1076       C  0.25012636  0.75131808  0.65623968    -0.06670
C1077       C  0.27057386  0.73178499  0.64042389    -0.17910
C1078       C  0.27154316  0.73124660  0.60825012     0.10480
S1079       S  0.20407651  0.79807334  0.65684809    -0.32870
S1080       S  0.29981063  0.70645745  0.59036747    -0.32880
H1081       H  0.30764792  0.72750133  0.56702984     0.28490
H1082       H  0.22380576  0.80630585  0.68110207     0.28490
H1083       H  0.21566792  0.78507028  0.59420694     0.19080
H1084       H  0.28595700  0.71678043  0.65324600     0.19090
C1085       C  0.24976809  0.74900303  0.84089256    -0.06750
C1086       C  0.25706838  0.77655308  0.85595266    -0.17870
C1087       C  0.25798559  0.77826781  0.88809741     0.10450
C1088       C  0.25072230  0.75184243  0.90593915    -0.06670
C1089       C  0.24389447  0.72412333  0.89050617    -0.17910
C1090       C  0.24332060  0.72239627  0.85835949     0.10480
S1091       S  0.26975337  0.81458077  0.90438235    -0.32870
S1092       S  0.23607913  0.68507973  0.84139049    -0.32880
H1093       H  0.22223329  0.69543112  0.81413481     0.28490
H1094       H  0.29261452  0.80109192  0.92310187     0.28490
H1095       H  0.26250769  0.79686073  0.84248501     0.19080
H1096       H  0.23878190  0.70347437  0.90353140     0.19090
C1097       C  0.24824953  0.99913976  0.59173923    -0.06750
C1098       C  0.26681284  0.52048456  0.60736067    -0.17870
C1099       C  0.26746339  0.52166450  0.63953391     0.10450
C1100       C  0.24956546  0.00067104  0.65673814    -0.06670
C1101       C  0.23065767  0.97962136  0.64116251    -0.17910
C1102       C  0.22958918  0.97879533  0.60897055     0.10480
S1103       S  0.29053300  0.55134260  0.65714900    -0.32870
S1104       S  0.20296419  0.95223186  0.59142425    -0.32880
H1105       H  0.19331046  0.97277768  0.56824525     0.28490
H1106       H  0.26936200  0.55792787  0.68081383     0.28490
H1107       H  0.28087867  0.53646940  0.59439764     0.19080
H1108       H  0.21653913  0.96372684  0.65418123     0.19090
C1109       C  0.25113391  0.99821464  0.84192922    -0.06750
C1110       C  0.22578451  0.01109941  0.85756226    -0.17870
C1111       C  0.22480335  0.01216781  0.88970827     0.10450
C1112       C  0.24945512  0.99978309  0.90690871    -0.06670
C1113       C  0.27448483  0.98632744  0.89152595    -0.17910
C1114       C  0.27557848  0.98523413  0.85936208     0.10480
S1115       S  0.19062156  0.52756532  0.90762774    -0.32870
S1116       S  0.30807925  0.46561413  0.84234292    -0.32880
H1117       H  0.29013357  0.94899024  0.82109851     0.28490
H1118       H  0.20660270  0.05078607  0.92350852     0.28490
H1119       H  0.20666351  0.02077764  0.84468163     0.19080
H1120       H  0.29324069  0.47632850  0.90471901     0.19090
C1121       C  0.25312653  0.90705759  0.75102923    -0.06750
C1122       C  0.27259229  0.89116489  0.73065622    -0.17870
C1123       C  0.27229931  0.85893468  0.72895048     0.10450
C1124       C  0.25242931  0.84205623  0.74846139    -0.06670
C1125       C  0.23333558  0.85798607  0.76915837    -0.17910
C1126       C  0.23390350  0.89015259  0.77107117     0.10480
S1127       S  0.29675151  0.84108854  0.70038969    -0.32870
S1128       S  0.21092213  0.90809451  0.80074284    -0.32880
H1129       H  0.23247567  0.93125981  0.80758965     0.28490
H1130       H  0.27646387  0.81703147  0.69305795     0.28490
H1131       H  0.28733228  0.90398592  0.71516634     0.19080
H1132       H  0.21858906  0.84521601  0.78468777     0.19090
C1133       C  0.24796491  0.59207996  0.75053010    -0.06750
C1134       C  0.23030342  0.60771330  0.72838675    -0.17870
C1135       C  0.23059305  0.63994333  0.72656360     0.10450
C1136       C  0.24829804  0.65699882  0.74784092    -0.06670
C1137       C  0.26577112  0.64133922  0.77008864    -0.17910
C1138       C  0.26543387  0.60917277  0.77195418     0.10480
S1139       S  0.20951812  0.65778702  0.69548532    -0.32870
S1140       S  0.28651188  0.59140448  0.80308295    -0.32880
H1141       H  0.26507083  0.56768611  0.80813522     0.28490
H1142       H  0.23114621  0.68127654  0.69015090     0.28490
H1143       H  0.21715266  0.59469130  0.71165904     0.19080
H1144       H  0.27909780  0.65431645  0.78671311     0.19090
C1145       C  0.50170790  0.74981588  0.59314807    -0.06750
C1146       C  0.48560511  0.77332637  0.60864910    -0.17870
C1147       C  0.48501971  0.77471958  0.64084653     0.10450
C1148       C  0.50093051  0.75214144  0.65813022    -0.06670
C1149       C  0.01756248  0.72907851  0.64269662    -0.17910
C1150       C  0.01799222  0.72750962  0.61055959     0.10480
S1151       S  0.46453833  0.80643464  0.65841385    -0.32870
S1152       S  0.04055834  0.69704697  0.59340192    -0.32880
H1153       H  0.05170025  0.71536319  0.56925824     0.28490
H1154       H  0.48515914  0.81011936  0.68310024     0.28490
H1155       H  0.47326341  0.79072191  0.59557592     0.19080
H1156       H  0.03029668  0.71202459  0.65582283     0.19090
C1157       C  0.49985234  0.74726273  0.84311812    -0.06750
C1158       C  0.47763948  0.76496896  0.85872935    -0.17870
C1159       C  0.47640355  0.76559560  0.89089674     0.10450
C1160       C  0.49791297  0.74816861  0.90810590    -0.06670
C1161       C  0.01980350  0.73006462  0.89255730    -0.17910
C1162       C  0.02097672  0.72932897  0.86037392     0.10480
S1163       S  0.44622249  0.78825049  0.90849027    -0.32870
S1164       S  0.04926222  0.70424236  0.84293349    -0.32880
H1165       H  0.03022381  0.69477158  0.81856504     0.28490
H1166       H  0.44056726  0.76738661  0.93259131     0.28490
H1167       H  0.46108490  0.77850854  0.84575672     0.19080
H1168       H  0.03624004  0.71644676  0.90561571     0.19090
C1169       C  0.99999682  0.49968392  0.59321364    -0.06750
C1170       C  0.47909601  0.51897397  0.60874167    -0.17870
C1171       C  0.47810036  0.52000969  0.64092573     0.10450
C1172       C  0.99867398  0.50148087  0.65817647    -0.06670
C1173       C  0.01981969  0.98251630  0.64261920    -0.17910
C1174       C  0.02054983  0.98113573  0.61048548     0.10480
S1175       S  0.45071675  0.54612156  0.65832249    -0.32870
S1176       S  0.04858350  0.95552334  0.59330282    -0.32880
H1177       H  0.05507566  0.97410166  0.56770757     0.28490
H1178       H  0.46935596  0.55402231  0.68349940     0.28490
H1179       H  0.46325243  0.53326174  0.59566206     0.19080
H1180       H  0.03590966  0.96848736  0.65563337     0.19090
C1181       C  0.00166517  0.50010243  0.84344146    -0.06750
C1182       C  0.47624600  0.98748819  0.85902138    -0.17870
C1183       C  0.47468050  0.98730208  0.89117312     0.10450
C1184       C  0.99913077  0.49981866  0.90845573    -0.06670
C1185       C  0.02452499  0.51245125  0.89313641    -0.17910
C1186       C  0.02612592  0.51279629  0.86095320     0.10480
S1187       S  0.44049801  0.97158546  0.90872797    -0.32870
S1188       S  0.05976498  0.53033822  0.84412909    -0.32880
H1189       H  0.04352079  0.54638486  0.82116962     0.28490
H1190       H  0.43962189  0.99255797  0.93338375     0.28490
H1191       H  0.45731819  0.97770723  0.84606297     0.19080
H1192       H  0.04333248  0.52208384  0.90639961     0.19250
C1193       C  0.50145335  0.90745525  0.74975562    -0.06750
C1194       C  0.48676132  0.89186392  0.77387545    -0.17870
C1195       C  0.48784957  0.85967096  0.77589631     0.10450
C1196       C  0.50332221  0.84252653  0.75292512    -0.06670
C1197       C  0.01820005  0.85810740  0.72890880    -0.17910
C1198       C  0.01706428  0.89031683  0.72686873     0.10480
S1199       S  0.47029894  0.84184995  0.80899432    -0.32870
S1200       S  0.03414867  0.90812088  0.69356549    -0.32880
H1201       H  0.01119759  0.93092872  0.69062560     0.28490
H1202       H  0.49216221  0.81793884  0.81146463     0.28490
H1203       H  0.47509302  0.90491734  0.79173962     0.19080
H1204       H  0.02968296  0.84503735  0.71093937     0.19090
C1205       C  0.49826478  0.59264592  0.75163476    -0.06750
C1206       C  0.49960641  0.60800558  0.72328909    -0.17870
C1207       C  0.49850666  0.64022611  0.72173332     0.10450
C1208       C  0.49713862  0.65756288  0.74919410    -0.06670
C1209       C  0.99597970  0.64223350  0.77756159    -0.17910
C1210       C  0.99611151  0.60998181  0.77909186     0.10480
S1211       S  0.49935557  0.65771698  0.68411915    -0.32870
S1212       S  0.99434465  0.59259398  0.81675724    -0.32880
H1213       H  0.97918169  0.56552618  0.80776935     0.28490
H1214       H  0.48169042  0.68382431  0.69180613     0.28490
H1215       H  0.50134006  0.59480552  0.70216642     0.19080
H1216       H  0.99481442  0.65549622  0.79869357     0.19090
O1217       O  0.97604605  0.00003676  0.29485949    -0.72400
O1218       O  0.97417071  0.49974743  0.20743733    -0.72620
O1219       O  0.97576002  0.45600305  0.25153037    -0.72480
O1220       O  0.97427124  0.04358397  0.25105638    -0.72490
O1221       O  0.52439192  0.04427528  0.25157414    -0.72450
O1222       O  0.52577676  0.45659948  0.24858161    -0.72470
O1223       O  0.52421036  0.00168805  0.20655191    -0.72410
O1224       O  0.52603111  0.49903774  0.29384056    -0.72590
V1225       V  0.97603045  0.49982001  0.25117809     1.35240
V1226       V  0.52413691  0.50038973  0.25017521     1.35170
C1227       C  0.50136555  0.49975346  0.30930976     0.76840
C1228       C  0.49892297  0.50112456  0.19212836     0.76890
C1229       C  0.00098644  0.44142706  0.24980490     0.76760
C1230       C  0.99904693  0.05876716  0.25160104     0.76730
O1231       O  0.52530918  0.24898410  0.29432124    -0.72400
O1232       O  0.52544855  0.24876968  0.20692207    -0.72620
O1233       O  0.52692325  0.29283614  0.25034808    -0.72480
O1234       O  0.52382977  0.20521131  0.25064817    -0.72490
O1235       O  0.97377834  0.20725999  0.24833998    -0.72450
O1236       O  0.97690790  0.29465537  0.25305813    -0.72470
O1237       O  0.97554410  0.25348586  0.20685139    -0.72410
O1238       O  0.97523552  0.24877580  0.29416598    -0.72590
V1239       V  0.52442437  0.24902312  0.25057775     1.35240
V1240       V  0.97632706  0.25098135  0.25055625     1.35170
C1241       C  0.00022638  0.24824061  0.30912897     0.76840
C1242       C  0.00057914  0.25163942  0.19203978     0.76890
C1243       C  0.00240526  0.30859792  0.25220514     0.76760
C1244       C  0.99827885  0.19141409  0.24921338     0.76730
O1245       O  0.72601584  0.50046621  0.29308871    -0.72400
O1246       O  0.72530627  0.49731393  0.20577391    -0.72620
O1247       O  0.72691629  0.45534472  0.25126245    -0.72480
O1248       O  0.72432760  0.04272402  0.24780537    -0.72490
O1249       O  0.77430840  0.04388258  0.25103874    -0.72450
O1250       O  0.77682688  0.45643619  0.24728997    -0.72470
O1251       O  0.77513819  0.50214048  0.20535989    -0.72410
O1252       O  0.77597761  0.49840516  0.29264844    -0.72590
V1253       V  0.72658012  0.49900397  0.24943167     1.35240
V1254       V  0.77463388  0.50018678  0.24903470     1.35170
C1255       C  0.75112890  0.49894351  0.30782305     0.76840
C1256       C  0.75006044  0.50006682  0.19068973     0.76890
C1257       C  0.75229147  0.44101276  0.24986532     0.76760
C1258       C  0.74888547  0.05816365  0.24981252     0.76730
O1259       O  0.77502129  0.25007712  0.29241791    -0.72400
O1260       O  0.77495219  0.24749492  0.20501681    -0.72620
O1261       O  0.77622029  0.29244671  0.24728120    -0.72480
O1262       O  0.77402298  0.20512365  0.25008815    -0.72490
O1263       O  0.72405664  0.20645240  0.24647851    -0.72450
O1264       O  0.72626082  0.29394165  0.25064156    -0.72470
O1265       O  0.72509041  0.25228290  0.20508681    -0.72410
O1266       O  0.72492833  0.24821792  0.29225388    -0.72590
V1267       V  0.77411228  0.24879980  0.24871146     1.35240
V1268       V  0.72602028  0.25018025  0.24865020     1.35170
C1269       C  0.74992779  0.24884043  0.30712856     0.76840
C1270       C  0.75001894  0.25041056  0.19017848     0.76890
C1271       C  0.75163088  0.30808134  0.24867299     0.76760
C1272       C  0.74875036  0.19092664  0.24797500     0.76730
O1273       O  0.54323257  0.02373760  0.50306056    -0.72400
O1274       O  0.95595424  0.02565808  0.99865195    -0.72620
O1275       O  0.49744814  0.02457524  0.04446402    -0.72480
O1276       O  0.00194758  0.02461773  0.45716263    -0.72490
O1277       O  0.49635669  0.47480103  0.45711249    -0.72450
O1278       O  0.00107281  0.47457294  0.04436828    -0.72470
O1279       O  0.95510207  0.47574644  0.50321581    -0.72410
O1280       O  0.54249088  0.47384738  0.99858157    -0.72590
V1281       V  0.49961105  0.02373041  0.00080798     1.35240
V1282       V  0.99877001  0.47564742  0.00076451     1.35170
C1283       C  0.55777028  0.99849376  0.00129831     0.76840
C1284       C  0.94066589  0.00106941  0.00137111     0.76890
C1285       C  0.49957280  0.99955567  0.05928946     0.76760
C1286       C  0.49908383  0.99972425  0.44230452     0.76730
O1287       O  0.50133268  0.22370757  0.45702769    -0.72400
O1288       O  0.99870799  0.22428431  0.04442338    -0.72620
O1289       O  0.95613889  0.22377305  0.49925261    -0.72480
O1290       O  0.54373009  0.22417785  0.00207963    -0.72490
O1291       O  0.54315991  0.27407704  0.49727124    -0.72450
O1292       O  0.95581181  0.27374317  0.00344622    -0.72470
O1293       O  0.50226056  0.27424144  0.04401062    -0.72410
O1294       O  0.99643163  0.27361106  0.45678209    -0.72590
V1295       V  0.99994150  0.22490103  0.50070543     1.35240
V1296       V  0.99945598  0.27299596  0.00039520     1.35170
C1297       C  0.99844637  0.24853982  0.44203622     0.76840
C1298       C  0.00095323  0.24935774  0.05912709     0.76890
C1299       C  0.94110799  0.24870599  0.00166048     0.76760
C1300       C  0.55833186  0.24917643  0.99915765     0.76730
O1301       O  0.74653379  0.02438278  0.45574719    -0.72400
O1302       O  0.75065233  0.02400784  0.04295049    -0.72620
O1303       O  0.79234974  0.02535625  0.49718222    -0.72480
O1304       O  0.70498733  0.02291345  0.00136513    -0.72490
O1305       O  0.70656982  0.47307371  0.49677801    -0.72450
O1306       O  0.79381543  0.47541203  0.00132283    -0.72470
O1307       O  0.74789660  0.47399756  0.04272646    -0.72410
O1308       O  0.75246574  0.47458773  0.45539928    -0.72590
V1309       V  0.74868120  0.02325008  0.49932029     1.35240
V1310       V  0.75017488  0.47518084  0.99906197     1.35170
C1311       C  0.74930628  0.49958128  0.44074051     0.76840
C1312       C  0.74887750  0.49897086  0.05774059     0.76890
C1313       C  0.80794764  0.50073318  0.99905097     0.76760
C1314       C  0.69085804  0.49757169  0.99892327     0.76730
O1315       O  0.74813526  0.27570763  0.04278759    -0.72400
O1316       O  0.75114267  0.27666406  0.45550826    -0.72620
O1317       O  0.70588591  0.27618123  0.99755042    -0.72480
O1318       O  0.79343652  0.27631181  0.50079865    -0.72490
O1319       O  0.79368476  0.22638622  0.99615556    -0.72450
O1320       O  0.70629905  0.22616869  0.50103184    -0.72470
O1321       O  0.74795581  0.22683099  0.45494776    -0.72410
O1322       O  0.75240663  0.22576007  0.04218602    -0.72590
V1323       V  0.74964812  0.27529308  0.99914287     1.35240
V1324       V  0.75001582  0.22721342  0.49858287     1.35170
C1325       C  0.75073013  0.25059312  0.05735315     0.76840
C1326       C  0.74994054  0.25191151  0.44019634     0.76890
C1327       C  0.69122145  0.25114978  0.99965827     0.76760
C1328       C  0.80842456  0.25137326  0.99824428     0.76730
C1329       C  0.90717494  0.24871621  0.00183322    -0.06750
C1330       C  0.89163970  0.23451587  0.47735664    -0.17870
C1331       C  0.85948858  0.23600713  0.47505137     0.10450
C1332       C  0.84234707  0.25130304  0.99814084    -0.06670
C1333       C  0.85787322  0.26548384  0.02262800    -0.17910
C1334       C  0.89002899  0.26404551  0.02490192     0.10480
S1335       S  0.84177480  0.21940413  0.44136995    -0.32870
S1336       S  0.90773820  0.28081565  0.05849296    -0.32880
H1337       H  0.93143789  0.25871203  0.06084510     0.28490
H1338       H  0.81822959  0.24166889  0.43894398     0.28490
H1339       H  0.90472013  0.22313000  0.45933656     0.19080
H1340       H  0.84478447  0.27685473  0.04065273     0.19090
C1341       C  0.59231164  0.24928792  0.99829739    -0.06750
C1342       C  0.60852183  0.23404691  0.02175904    -0.17870
C1343       C  0.64069792  0.23518901  0.02332783     0.10450
C1344       C  0.65728219  0.25107900  0.00035544    -0.06670
C1345       C  0.64113298  0.26625146  0.47680154    -0.17910
C1346       C  0.60890772  0.26519465  0.47530429     0.10480
S1347       S  0.65914870  0.21739942  0.05605798    -0.32870
S1348       S  0.59042774  0.28304413  0.44263143    -0.32880
H1349       H  0.56683407  0.26105830  0.44002156     0.28490
H1350       H  0.68256239  0.23956301  0.05881709     0.28490
H1351       H  0.59600524  0.22197041  0.03962129     0.19080
H1352       H  0.65377918  0.27815171  0.45886419     0.19090
C1353       C  0.84186800  0.50135308  0.99909643    -0.06750
C1354       C  0.85751187  0.48364687  0.02118010    -0.17870
C1355       C  0.88965405  0.48409184  0.02319655     0.10450
C1356       C  0.90675293  0.50187848  0.00205683    -0.06670
C1357       C  0.89112612  0.01990014  0.48019642    -0.17910
C1358       C  0.85893615  0.01953197  0.47823052     0.10480
S1359       S  0.90735392  0.46284023  0.05424497    -0.32870
S1360       S  0.84121974  0.04121936  0.44749758    -0.32880
H1361       H  0.81786589  0.01961807  0.44157575     0.28490
H1362       H  0.93080439  0.48448135  0.05970212     0.28490
H1363       H  0.84453885  0.47006952  0.03758515     0.19080
H1364       H  0.90412536  0.03342855  0.46377464     0.19090
C1365       C  0.65684032  0.49681066  0.99948855    -0.06750
C1366       C  0.64133073  0.01771141  0.01873298    -0.17870
C1367       C  0.60917066  0.01817680  0.02056778     0.10450
C1368       C  0.59177626  0.49779872  0.00203757    -0.06670
C1369       C  0.60728255  0.47684866  0.48279928    -0.17910
C1370       C  0.63949282  0.47612289  0.48135619     0.10480
S1371       S  0.59212904  0.04474933  0.04772197    -0.32870
S1372       S  0.65706337  0.45019752  0.45410811    -0.32880
H1373       H  0.66983472  0.43148189  0.47732395     0.28490
H1374       H  0.56775606  0.02545895  0.05648422     0.28490
H1375       H  0.65442122  0.03341774  0.03302248     0.19080
H1376       H  0.59420730  0.46140757  0.46821215     0.19090
C1377       C  0.75137781  0.25045467  0.09127724    -0.06750
C1378       C  0.73110445  0.27014922  0.10706542    -0.17870
C1379       C  0.73031263  0.27092545  0.13922585     0.10450
C1380       C  0.75012637  0.25131809  0.15623969    -0.06670
C1381       C  0.77057386  0.23178500  0.14042389    -0.17910
C1382       C  0.77154316  0.23124660  0.10825012     0.10480
S1383       S  0.70407652  0.29807336  0.15684809    -0.32870
S1384       S  0.79981063  0.20645744  0.09036748    -0.32880
H1385       H  0.80764792  0.22750133  0.06702984     0.28490
H1386       H  0.72380578  0.30630586  0.18110207     0.28490
H1387       H  0.71566794  0.28507030  0.09420694     0.19080
H1388       H  0.78595699  0.21678043  0.15324600     0.19090
C1389       C  0.74976808  0.24900302  0.34089256    -0.06750
C1390       C  0.75706842  0.27655306  0.35595266    -0.17870
C1391       C  0.75798564  0.27826779  0.38809741     0.10450
C1392       C  0.75072230  0.25184242  0.40593915    -0.06670
C1393       C  0.74389444  0.22412333  0.39050617    -0.17910
C1394       C  0.74332056  0.22239627  0.35835948     0.10480
S1395       S  0.76975348  0.31458073  0.40438235    -0.32870
S1396       S  0.73607905  0.18507974  0.34139049    -0.32880
H1397       H  0.72223324  0.19543114  0.31413480     0.28490
H1398       H  0.79261459  0.30109183  0.42310189     0.28490
H1399       H  0.76250776  0.29686070  0.34248502     0.19080
H1400       H  0.73878183  0.20347438  0.40353140     0.19090
C1401       C  0.74824952  0.49913976  0.09173923    -0.06750
C1402       C  0.76681283  0.02048457  0.10736067    -0.17870
C1403       C  0.76746338  0.02166451  0.13953391     0.10450
C1404       C  0.74956546  0.50067104  0.15673814    -0.06670
C1405       C  0.73065766  0.47962136  0.14116251    -0.17910
C1406       C  0.72958917  0.47879534  0.10897055     0.10480
S1407       S  0.79053298  0.05134262  0.15714900    -0.32870
S1408       S  0.70296417  0.45223188  0.09142425    -0.32880
H1409       H  0.69331045  0.47277770  0.06824525     0.28490
H1410       H  0.76936198  0.05792788  0.18081383     0.28490
H1411       H  0.78087866  0.03646941  0.09439764     0.19080
H1412       H  0.71653911  0.46372685  0.15418123     0.19090
C1413       C  0.75113391  0.49821465  0.34192922    -0.06750
C1414       C  0.72578453  0.51109946  0.35756226    -0.17870
C1415       C  0.72480337  0.51216786  0.38970827     0.10450
C1416       C  0.74945512  0.49978311  0.40690871    -0.06670
C1417       C  0.77448481  0.48632741  0.39152595    -0.17910
C1418       C  0.77557845  0.48523410  0.35936208     0.10480
S1419       S  0.69062152  0.02756522  0.40762774    -0.32870
S1420       S  0.80807930  0.96561421  0.34234293    -0.32880
H1421       H  0.79013349  0.44899021  0.32109848     0.28490
H1422       H  0.70660279  0.55078619  0.42350847     0.28490
H1423       H  0.70666355  0.52077773  0.34468162     0.19080
H1424       H  0.79324073  0.97632856  0.40471901     0.19090
C1425       C  0.75312653  0.40705760  0.25102923    -0.06750
C1426       C  0.77259230  0.39116490  0.23065624    -0.17870
C1427       C  0.77229932  0.35893469  0.22895050     0.10450
C1428       C  0.75242931  0.34205624  0.24846139    -0.06670
C1429       C  0.73333557  0.35798608  0.26915836    -0.17910
C1430       C  0.73390348  0.39015260  0.27107116     0.10480
S1431       S  0.79675154  0.34108855  0.20038972    -0.32870
S1432       S  0.71092209  0.40809451  0.30074281    -0.32880
H1433       H  0.73247562  0.43125982  0.30758964     0.28490
H1434       H  0.77646390  0.31703148  0.19305797     0.28490
H1435       H  0.78733230  0.40398593  0.21516637     0.19080
H1436       H  0.71858904  0.34521601  0.28468775     0.19090
C1437       C  0.74796490  0.09207996  0.25053010    -0.06750
C1438       C  0.73030341  0.10771330  0.22838675    -0.17870
C1439       C  0.73059304  0.13994333  0.22656360     0.10450
C1440       C  0.74829803  0.15699882  0.24784092    -0.06670
C1441       C  0.76577112  0.14133923  0.27008864    -0.17910
C1442       C  0.76543387  0.10917277  0.27195418     0.10480
S1443       S  0.70951811  0.15778703  0.19548533    -0.32870
S1444       S  0.78651188  0.09140448  0.30308295    -0.32880
H1445       H  0.76507083  0.06768612  0.30813522     0.28490
H1446       H  0.73114620  0.18127654  0.19015091     0.28490
H1447       H  0.71715265  0.09469130  0.21165904     0.19080
H1448       H  0.77909780  0.15431645  0.28671310     0.19090
C1449       C  0.00170790  0.24981589  0.09314807    -0.06750
C1450       C  0.98560510  0.27332637  0.10864910    -0.17870
C1451       C  0.98501970  0.27471958  0.14084652     0.10450
C1452       C  0.00093051  0.25214145  0.15813022    -0.06670
C1453       C  0.51756250  0.22907854  0.14269662    -0.17910
C1454       C  0.51799224  0.22750964  0.11055959     0.10480
S1455       S  0.96453830  0.30643464  0.15841385    -0.32870
S1456       S  0.54055836  0.19704699  0.09340193    -0.32880
H1457       H  0.55170024  0.21536321  0.06925823     0.28490
H1458       H  0.98515911  0.31011937  0.18310024     0.28490
H1459       H  0.97326339  0.29072190  0.09557592     0.19080
H1460       H  0.53029671  0.21202463  0.15582283     0.19090
C1461       C  0.99985234  0.24726272  0.34311812    -0.06750
C1462       C  0.97763948  0.26496896  0.35872935    -0.17870
C1463       C  0.97640355  0.26559560  0.39089674     0.10450
C1464       C  0.99791297  0.24816861  0.40810590    -0.06670
C1465       C  0.51980349  0.23006460  0.39255730    -0.17910
C1466       C  0.52097671  0.22932896  0.36037392     0.10480
S1467       S  0.94622250  0.28825049  0.40849027    -0.32870
S1468       S  0.54926220  0.20424233  0.34293348    -0.32880
H1469       H  0.53022377  0.19477156  0.31856504     0.28490
H1470       H  0.94056726  0.26738661  0.43259132     0.28490
H1471       H  0.96108490  0.27850854  0.34575673     0.19080
H1472       H  0.53624002  0.21644673  0.40561571     0.19090
C1473       C  0.49999683  0.99968393  0.09321364    -0.06750
C1474       C  0.97909603  0.01897398  0.10874168    -0.17870
C1475       C  0.97810038  0.02000971  0.14092573     0.10450
C1476       C  0.49867400  0.00148088  0.15817648    -0.06670
C1477       C  0.51981968  0.48251631  0.14261920    -0.17910
C1478       C  0.52054982  0.48113573  0.11048547     0.10480
S1479       S  0.95071679  0.04612159  0.15832250    -0.32870
S1480       S  0.54858350  0.45552334  0.09330282    -0.32880
H1481       H  0.55507565  0.47410166  0.06770756     0.28490
H1482       H  0.96935600  0.05402234  0.18349940     0.28490
H1483       H  0.96325245  0.03326176  0.09566206     0.19080
H1484       H  0.53590965  0.46848737  0.15563337     0.19090
C1485       C  0.50166518  0.00010244  0.34344147    -0.06750
C1486       C  0.97624598  0.48748822  0.35902137    -0.17870
C1487       C  0.97468048  0.48730211  0.39117312     0.10450
C1488       C  0.49913078  0.99981867  0.40845574    -0.06670
C1489       C  0.52452499  0.01245128  0.39313642    -0.17910
C1490       C  0.52612591  0.01279633  0.36095320     0.10480
S1491       S  0.94049798  0.47158551  0.40872796    -0.32870
S1492       S  0.55976494  0.03033831  0.34412910    -0.32880
H1493       H  0.54352073  0.04638492  0.32116962     0.28490
H1494       H  0.93962188  0.49255802  0.43338375     0.28490
H1495       H  0.95731816  0.47770728  0.34606297     0.19080
H1496       H  0.54333246  0.02208389  0.40639961     0.19250
C1497       C  0.00145333  0.40745525  0.24975561    -0.06750
C1498       C  0.98676128  0.39186393  0.27387543    -0.17870
C1499       C  0.98784953  0.35967097  0.27589630     0.10450
C1500       C  0.00332219  0.34252654  0.25292511    -0.06670
C1501       C  0.51820005  0.35810741  0.22890880    -0.17910
C1502       C  0.51706427  0.39031684  0.22686874     0.10480
S1503       S  0.97029888  0.34184995  0.30899430    -0.32870
S1504       S  0.53414867  0.40812089  0.19356550    -0.32880
H1505       H  0.51119759  0.43092872  0.19062560     0.28490
H1506       H  0.99216216  0.31793885  0.31146463     0.28490
H1507       H  0.97509297  0.40491735  0.29173959     0.19080
H1508       H  0.52968296  0.34503736  0.21093938     0.19090
C1509       C  0.99826479  0.09264592  0.25163477    -0.06750
C1510       C  0.99960649  0.10800558  0.22328910    -0.17870
C1511       C  0.99850673  0.14022611  0.22173333     0.10450
C1512       C  0.99713863  0.15756289  0.24919410    -0.06670
C1513       C  0.49597963  0.14223351  0.27756159    -0.17910
C1514       C  0.49611145  0.10998182  0.27909186     0.10480
S1515       S  0.99935571  0.15771698  0.18411916    -0.32870
S1516       S  0.49434451  0.09259399  0.31675724    -0.32880
H1517       H  0.47918160  0.06552617  0.30776933     0.28490
H1518       H  0.98169053  0.18382430  0.19180610     0.28490
H1519       H  0.00134018  0.09480553  0.20216644     0.19080
H1520       H  0.49481430  0.15549623  0.29869357     0.19090
O1521       O  0.97604605  0.00003675  0.79485949    -0.72400
O1522       O  0.97417071  0.49974743  0.70743733    -0.72620
O1523       O  0.97576002  0.45600305  0.75153037    -0.72480
O1524       O  0.97427124  0.04358396  0.75105638    -0.72490
O1525       O  0.52439192  0.04427527  0.75157414    -0.72450
O1526       O  0.52577676  0.45659948  0.74858161    -0.72470
O1527       O  0.52421037  0.00168804  0.70655191    -0.72410
O1528       O  0.52603111  0.49903773  0.79384056    -0.72590
V1529       V  0.97603045  0.49982000  0.75117809     1.35240
V1530       V  0.52413691  0.50038973  0.75017521     1.35170
C1531       C  0.50136554  0.49975345  0.80930976     0.76840
C1532       C  0.49892296  0.50112456  0.69212836     0.76890
C1533       C  0.00098643  0.44142706  0.74980490     0.76760
C1534       C  0.99904693  0.05876715  0.75160104     0.76730
O1535       O  0.52530918  0.24898410  0.79432124    -0.72400
O1536       O  0.52544855  0.24876967  0.70692207    -0.72620
O1537       O  0.52692325  0.29283613  0.75034808    -0.72480
O1538       O  0.52382977  0.20521130  0.75064817    -0.72490
O1539       O  0.97377834  0.20725999  0.74833998    -0.72450
O1540       O  0.97690790  0.29465536  0.75305813    -0.72470
O1541       O  0.97554410  0.25348586  0.70685139    -0.72410
O1542       O  0.97523551  0.24877579  0.79416598    -0.72590
V1543       V  0.52442437  0.24902311  0.75057775     1.35240
V1544       V  0.97632706  0.25098134  0.75055625     1.35170
C1545       C  0.00022637  0.24824060  0.80912897     0.76840
C1546       C  0.00057913  0.25163941  0.69203978     0.76890
C1547       C  0.00240525  0.30859791  0.75220514     0.76760
C1548       C  0.99827885  0.19141409  0.74921338     0.76730
O1549       O  0.72601584  0.50046620  0.79308871    -0.72400
O1550       O  0.72530626  0.49731393  0.70577391    -0.72620
O1551       O  0.72691628  0.45534472  0.75126245    -0.72480
O1552       O  0.72432760  0.04272402  0.74780537    -0.72490
O1553       O  0.77430840  0.04388258  0.75103874    -0.72450
O1554       O  0.77682687  0.45643619  0.74728997    -0.72470
O1555       O  0.77513819  0.50214048  0.70535989    -0.72410
O1556       O  0.77597760  0.49840515  0.79264844    -0.72590
V1557       V  0.72658012  0.49900397  0.74943167     1.35240
V1558       V  0.77463388  0.50018677  0.74903470     1.35170
C1559       C  0.75112890  0.49894350  0.80782305     0.76840
C1560       C  0.75006044  0.50006682  0.69068973     0.76890
C1561       C  0.75229147  0.44101276  0.74986531     0.76760
C1562       C  0.74888547  0.05816364  0.74981252     0.76730
O1563       O  0.77502129  0.25007712  0.79241791    -0.72400
O1564       O  0.77495219  0.24749491  0.70501681    -0.72620
O1565       O  0.77622029  0.29244670  0.74728120    -0.72480
O1566       O  0.77402298  0.20512365  0.75008815    -0.72490
O1567       O  0.72405664  0.20645240  0.74647851    -0.72450
O1568       O  0.72626082  0.29394164  0.75064156    -0.72470
O1569       O  0.72509041  0.25228290  0.70508681    -0.72410
O1570       O  0.72492833  0.24821792  0.79225388    -0.72590
V1571       V  0.77411228  0.24879980  0.74871146     1.35240
V1572       V  0.72602028  0.25018024  0.74865019     1.35170
C1573       C  0.74992778  0.24884042  0.80712856     0.76840
C1574       C  0.75001894  0.25041056  0.69017848     0.76890
C1575       C  0.75163087  0.30808133  0.74867299     0.76760
C1576       C  0.74875036  0.19092664  0.74797500     0.76730
O1577       O  0.54323257  0.02373760  0.00306056    -0.72400
O1578       O  0.95595424  0.02565807  0.49865195    -0.72620
O1579       O  0.49744814  0.02457523  0.54446402    -0.72480
O1580       O  0.00194758  0.02461773  0.95716263    -0.72490
O1581       O  0.49635669  0.47480102  0.95711249    -0.72450
O1582       O  0.00107280  0.47457295  0.54436828    -0.72470
O1583       O  0.95510207  0.47574643  0.00321581    -0.72410
O1584       O  0.54249088  0.47384739  0.49858157    -0.72590
V1585       V  0.49961105  0.02373040  0.50080798     1.35240
V1586       V  0.99877001  0.47564743  0.50076451     1.35170
C1587       C  0.55777029  0.99849376  0.50129831     0.76840
C1588       C  0.94066589  0.00106941  0.50137111     0.76890
C1589       C  0.49957280  0.99955566  0.55928946     0.76760
C1590       C  0.49908383  0.99972425  0.94230452     0.76730
O1591       O  0.50133268  0.22370758  0.95702769    -0.72400
O1592       O  0.99870800  0.22428431  0.54442338    -0.72620
O1593       O  0.95613888  0.22377305  0.99925261    -0.72480
O1594       O  0.54373009  0.22417785  0.50207964    -0.72490
O1595       O  0.54315990  0.27407704  0.99727125    -0.72450
O1596       O  0.95581182  0.27374317  0.50344622    -0.72470
O1597       O  0.50226057  0.27424144  0.54401062    -0.72410
O1598       O  0.99643162  0.27361106  0.95678209    -0.72590
V1599       V  0.99994150  0.22490103  0.00070543     1.35240
V1600       V  0.99945599  0.27299595  0.50039520     1.35170
C1601       C  0.99844637  0.24853982  0.94203622     0.76840
C1602       C  0.00095324  0.24935774  0.55912709     0.76890
C1603       C  0.94110799  0.24870599  0.50166048     0.76760
C1604       C  0.55833187  0.24917643  0.49915765     0.76730
O1605       O  0.74653379  0.02438279  0.95574719    -0.72400
O1606       O  0.75065233  0.02400784  0.54295049    -0.72620
O1607       O  0.79234974  0.02535626  0.99718222    -0.72480
O1608       O  0.70498733  0.02291345  0.50136513    -0.72490
O1609       O  0.70656982  0.47307370  0.99677801    -0.72450
O1610       O  0.79381543  0.47541205  0.50132283    -0.72470
O1611       O  0.74789660  0.47399757  0.54272645    -0.72410
O1612       O  0.75246574  0.47458771  0.95539928    -0.72590
V1613       V  0.74868119  0.02325009  0.99932029     1.35240
V1614       V  0.75017489  0.47518085  0.49906197     1.35170
C1615       C  0.74930628  0.49958127  0.94074051     0.76840
C1616       C  0.74887750  0.49897087  0.55774059     0.76890
C1617       C  0.80794764  0.50073320  0.49905097     0.76760
C1618       C  0.69085805  0.49757170  0.49892327     0.76730
O1619       O  0.74813527  0.27570763  0.54278759    -0.72400
O1620       O  0.75114266  0.27666406  0.95550826    -0.72620
O1621       O  0.70588592  0.27618124  0.49755042    -0.72480
O1622       O  0.79343651  0.27631181  0.00079866    -0.72490
O1623       O  0.79368476  0.22638622  0.49615556    -0.72450
O1624       O  0.70629905  0.22616869  0.00103184    -0.72470
O1625       O  0.74795581  0.22683099  0.95494776    -0.72410
O1626       O  0.75240664  0.22576007  0.54218602    -0.72590
V1627       V  0.74964812  0.27529308  0.49914287     1.35240
V1628       V  0.75001582  0.22721342  0.99858287     1.35170
C1629       C  0.75073014  0.25059312  0.55735315     0.76840
C1630       C  0.74994054  0.25191152  0.94019634     0.76890
C1631       C  0.69122145  0.25114978  0.49965827     0.76760
C1632       C  0.80842457  0.25137325  0.49824428     0.76730
C1633       C  0.90717495  0.24871621  0.50183322    -0.06750
C1634       C  0.89163969  0.23451591  0.97735661    -0.17870
C1635       C  0.85948857  0.23600718  0.97505135     0.10450
C1636       C  0.84234707  0.25130303  0.49814084    -0.06670
C1637       C  0.85787322  0.26548388  0.52262797    -0.17910
C1638       C  0.89002899  0.26404554  0.52490190     0.10480
S1639       S  0.84177479  0.21940423  0.94136990    -0.32870
S1640       S  0.90773821  0.28081574  0.55849291    -0.32880
H1641       H  0.93143789  0.25871212  0.56084509     0.28490
H1642       H  0.81822958  0.24166898  0.93894397     0.28490
H1643       H  0.90472012  0.22313007  0.95933652     0.19080
H1644       H  0.84478447  0.27685480  0.54065268     0.19090
C1645       C  0.59231164  0.24928791  0.49829739    -0.06750
C1646       C  0.60852183  0.23404695  0.52175906    -0.17870
C1647       C  0.64069792  0.23518905  0.52332785     0.10450
C1648       C  0.65728220  0.25107900  0.50035544    -0.06670
C1649       C  0.64113298  0.26625150  0.97680156    -0.17910
C1650       C  0.60890772  0.26519469  0.97530432     0.10480
S1651       S  0.65914871  0.21739951  0.55605803    -0.32870
S1652       S  0.59042774  0.28304421  0.94263148    -0.32880
H1653       H  0.56683407  0.26105838  0.94002157     0.28490
H1654       H  0.68256240  0.23956310  0.55881710     0.28490
H1655       H  0.59600524  0.22197048  0.53962134     0.19080
H1656       H  0.65377918  0.27815178  0.95886423     0.19090
C1657       C  0.84186800  0.50135310  0.49909643    -0.06750
C1658       C  0.85751187  0.48364689  0.52118011    -0.17870
C1659       C  0.88965405  0.48409186  0.52319655     0.10450
C1660       C  0.90675293  0.50187850  0.50205683    -0.06670
C1661       C  0.89112611  0.01990014  0.98019642    -0.17910
C1662       C  0.85893614  0.01953198  0.97823052     0.10480
S1663       S  0.90735392  0.46284026  0.55424498    -0.32870
S1664       S  0.84121974  0.04121936  0.94749757    -0.32880
H1665       H  0.81786589  0.01961808  0.94157575     0.28490
H1666       H  0.93080439  0.48448139  0.55970213     0.28490
H1667       H  0.84453885  0.47006955  0.53758516     0.19080
H1668       H  0.90412536  0.03342855  0.96377463     0.19090
C1669       C  0.65684032  0.49681066  0.49948855    -0.06750
C1670       C  0.64133073  0.01771140  0.51873298    -0.17870
C1671       C  0.60917066  0.01817680  0.52056779     0.10450
C1672       C  0.59177627  0.49779872  0.50203757    -0.06670
C1673       C  0.60728255  0.47684866  0.98279927    -0.17910
C1674       C  0.63949282  0.47612288  0.98135619     0.10480
S1675       S  0.59212904  0.04474932  0.54772198    -0.32870
S1676       S  0.65706337  0.45019752  0.95410810    -0.32880
H1677       H  0.66983472  0.43148189  0.97732394     0.28490
H1678       H  0.56775606  0.02545894  0.55648423     0.28490
H1679       H  0.65442123  0.03341773  0.53302248     0.19080
H1680       H  0.59420730  0.46140757  0.96821214     0.19090
C1681       C  0.75137781  0.25045467  0.59127724    -0.06750
C1682       C  0.73110445  0.27014922  0.60706542    -0.17870
C1683       C  0.73031264  0.27092544  0.63922585     0.10450
C1684       C  0.75012637  0.25131808  0.65623969    -0.06670
C1685       C  0.77057386  0.23178499  0.64042389    -0.17910
C1686       C  0.77154317  0.23124660  0.60825012     0.10480
S1687       S  0.70407652  0.29807335  0.65684809    -0.32870
S1688       S  0.79981064  0.20645745  0.59036747    -0.32880
H1689       H  0.80764793  0.22750133  0.56702984     0.28490
H1690       H  0.72380578  0.30630586  0.68110207     0.28490
H1691       H  0.71566794  0.28507029  0.59420694     0.19080
H1692       H  0.78595700  0.21678043  0.65324600     0.19090
C1693       C  0.74976808  0.24900302  0.84089256    -0.06750
C1694       C  0.75706842  0.27655306  0.85595266    -0.17870
C1695       C  0.75798563  0.27826779  0.88809741     0.10450
C1696       C  0.75072230  0.25184242  0.90593915    -0.06670
C1697       C  0.74389443  0.22412333  0.89050617    -0.17910
C1698       C  0.74332055  0.22239627  0.85835949     0.10480
S1699       S  0.76975348  0.31458073  0.90438235    -0.32870
S1700       S  0.73607905  0.18507974  0.84139049    -0.32880
H1701       H  0.72223323  0.19543114  0.81413480     0.28490
H1702       H  0.79261458  0.30109183  0.92310189     0.28490
H1703       H  0.76250776  0.29686070  0.84248502     0.19080
H1704       H  0.73878183  0.20347438  0.90353140     0.19090
C1705       C  0.74824953  0.49913976  0.59173923    -0.06750
C1706       C  0.76681283  0.02048456  0.60736066    -0.17870
C1707       C  0.76746338  0.02166450  0.63953391     0.10450
C1708       C  0.74956546  0.50067105  0.65673814    -0.06670
C1709       C  0.73065766  0.47962137  0.64116251    -0.17910
C1710       C  0.72958917  0.47879534  0.60897055     0.10480
S1711       S  0.79053298  0.05134262  0.65714900    -0.32870
S1712       S  0.70296417  0.45223188  0.59142424    -0.32880
H1713       H  0.69331045  0.47277771  0.56824525     0.28490
H1714       H  0.76936198  0.05792787  0.68081383     0.28490
H1715       H  0.78087866  0.03646940  0.59439764     0.19080
H1716       H  0.71653912  0.46372685  0.65418123     0.19090
C1717       C  0.75113390  0.49821464  0.84192922    -0.06750
C1718       C  0.72578453  0.51109947  0.85756226    -0.17870
C1719       C  0.72480337  0.51216787  0.88970827     0.10450
C1720       C  0.74945512  0.49978309  0.90690871    -0.06670
C1721       C  0.77448479  0.48632738  0.89152595    -0.17910
C1722       C  0.77557844  0.48523407  0.85936208     0.10480
S1723       S  0.69062149  0.02756517  0.90762774    -0.32870
S1724       S  0.80807933  0.96561426  0.84234293    -0.32880
H1725       H  0.79013345  0.44899018  0.82109847     0.28490
H1726       H  0.70660282  0.55078621  0.92350846     0.28490
H1727       H  0.70666355  0.52077775  0.84468163     0.19080
H1728       H  0.79324075  0.97632860  0.90471901     0.19090
C1729       C  0.75312652  0.40705759  0.75102923    -0.06750
C1730       C  0.77259229  0.39116489  0.73065624    -0.17870
C1731       C  0.77229932  0.35893468  0.72895050     0.10450
C1732       C  0.75242931  0.34205623  0.74846139    -0.06670
C1733       C  0.73333556  0.35798607  0.76915836    -0.17910
C1734       C  0.73390347  0.39015259  0.77107116     0.10480
S1735       S  0.79675154  0.34108854  0.70038972    -0.32870
S1736       S  0.71092207  0.40809450  0.80074280    -0.32880
H1737       H  0.73247561  0.43125981  0.80758964     0.28490
H1738       H  0.77646389  0.31703148  0.69305797     0.28490
H1739       H  0.78733230  0.40398592  0.71516637     0.19080
H1740       H  0.71858903  0.34521601  0.78468774     0.19090
C1741       C  0.74796490  0.09207996  0.75053010    -0.06750
C1742       C  0.73030341  0.10771330  0.72838675    -0.17870
C1743       C  0.73059304  0.13994333  0.72656360     0.10450
C1744       C  0.74829803  0.15699881  0.74784092    -0.06670
C1745       C  0.76577112  0.14133922  0.77008864    -0.17910
C1746       C  0.76543387  0.10917277  0.77195418     0.10480
S1747       S  0.70951810  0.15778702  0.69548533    -0.32870
S1748       S  0.78651189  0.09140448  0.80308294    -0.32880
H1749       H  0.76507084  0.06768611  0.80813521     0.28490
H1750       H  0.73114619  0.18127653  0.69015091     0.28490
H1751       H  0.71715264  0.09469130  0.71165905     0.19080
H1752       H  0.77909781  0.15431645  0.78671310     0.19090
C1753       C  0.00170790  0.24981588  0.59314807    -0.06750
C1754       C  0.98560510  0.27332636  0.60864910    -0.17870
C1755       C  0.98501970  0.27471958  0.64084652     0.10450
C1756       C  0.00093051  0.25214144  0.65813022    -0.06670
C1757       C  0.51756250  0.22907853  0.64269662    -0.17910
C1758       C  0.51799224  0.22750963  0.61055960     0.10480
S1759       S  0.96453830  0.30643463  0.65841385    -0.32870
S1760       S  0.54055835  0.19704698  0.59340193    -0.32880
H1761       H  0.55170024  0.21536319  0.56925823     0.28490
H1762       H  0.98515911  0.31011936  0.68310024     0.28490
H1763       H  0.97326340  0.29072190  0.59557592     0.19080
H1764       H  0.53029670  0.21202461  0.65582283     0.19090
C1765       C  0.99985233  0.24726272  0.84311812    -0.06750
C1766       C  0.97763948  0.26496896  0.85872935    -0.17870
C1767       C  0.97640355  0.26559560  0.89089674     0.10450
C1768       C  0.99791296  0.24816861  0.90810590    -0.06670
C1769       C  0.51980349  0.23006461  0.89255730    -0.17910
C1770       C  0.52097671  0.22932896  0.86037392     0.10480
S1771       S  0.94622250  0.28825050  0.90849027    -0.32870
S1772       S  0.54926220  0.20424233  0.84293348    -0.32880
H1773       H  0.53022378  0.19477156  0.81856504     0.28490
H1774       H  0.94056726  0.26738662  0.93259132     0.28490
H1775       H  0.96108490  0.27850854  0.84575672     0.19080
H1776       H  0.53624002  0.21644674  0.90561571     0.19090
C1777       C  0.49999683  0.99968392  0.59321364    -0.06750
C1778       C  0.97909603  0.01897397  0.60874168    -0.17870
C1779       C  0.97810038  0.02000970  0.64092573     0.10450
C1780       C  0.49867400  0.00148087  0.65817648    -0.06670
C1781       C  0.51981967  0.48251630  0.64261920    -0.17910
C1782       C  0.52054982  0.48113573  0.61048547     0.10480
S1783       S  0.95071679  0.04612158  0.65832250    -0.32870
S1784       S  0.54858349  0.45552334  0.59330282    -0.32880
H1785       H  0.55507565  0.47410166  0.56770756     0.28490
H1786       H  0.96935600  0.05402233  0.68349939     0.28490
H1787       H  0.96325245  0.03326175  0.59566206     0.19080
H1788       H  0.53590965  0.46848737  0.65563337     0.19090
C1789       C  0.50166519  0.00010243  0.84344147    -0.06750
C1790       C  0.97624598  0.48748822  0.85902137    -0.17870
C1791       C  0.97468048  0.48730211  0.89117312     0.10450
C1792       C  0.49913078  0.99981866  0.90845574    -0.06670
C1793       C  0.52452499  0.01245128  0.89313642    -0.17910
C1794       C  0.52612592  0.01279632  0.86095321     0.10480
S1795       S  0.94049798  0.47158551  0.90872796    -0.32870
S1796       S  0.55976495  0.03033830  0.84412910    -0.32880
H1797       H  0.54352074  0.04638491  0.82116962     0.28490
H1798       H  0.93962188  0.49255802  0.93338375     0.28490
H1799       H  0.95731815  0.47770728  0.84606297     0.19080
H1800       H  0.54333246  0.02208389  0.90639961     0.19250
C1801       C  0.00145333  0.40745525  0.74975561    -0.06750
C1802       C  0.98676128  0.39186392  0.77387543    -0.17870
C1803       C  0.98784953  0.35967097  0.77589630     0.10450
C1804       C  0.00332219  0.34252653  0.75292511    -0.06670
C1805       C  0.51820004  0.35810740  0.72890880    -0.17910
C1806       C  0.51706427  0.39031683  0.72686873     0.10480
S1807       S  0.97029888  0.34184995  0.80899430    -0.32870
S1808       S  0.53414866  0.40812088  0.69356549    -0.32880
H1809       H  0.51119758  0.43092872  0.69062560     0.28490
H1810       H  0.99216216  0.31793884  0.81146463     0.28490
H1811       H  0.97509297  0.40491734  0.79173959     0.19080
H1812       H  0.52968295  0.34503735  0.71093937     0.19090
C1813       C  0.99826479  0.09264592  0.75163477    -0.06750
C1814       C  0.99960648  0.10800558  0.72328910    -0.17870
C1815       C  0.99850673  0.14022610  0.72173333     0.10450
C1816       C  0.99713863  0.15756288  0.74919410    -0.06670
C1817       C  0.49597964  0.14223350  0.77756159    -0.17910
C1818       C  0.49611146  0.10998181  0.77909186     0.10480
S1819       S  0.99935570  0.15771698  0.68411916    -0.32870
S1820       S  0.49434453  0.09259398  0.81675724    -0.32880
H1821       H  0.47918161  0.06552617  0.80776933     0.28490
H1822       H  0.98169052  0.18382430  0.69180610     0.28490
H1823       H  0.00134017  0.09480552  0.70216644     0.19080
H1824       H  0.49481432  0.15549622  0.79869357     0.19090
O1825       O  0.97604604  0.50003677  0.29485948    -0.72400
O1826       O  0.97417072  0.99974744  0.20743734    -0.72620
O1827       O  0.97576003  0.95600305  0.25153036    -0.72480
O1828       O  0.97427123  0.54358397  0.25105636    -0.72490
O1829       O  0.52439190  0.54427528  0.25157414    -0.72450
O1830       O  0.52577678  0.95659948  0.24858163    -0.72470
O1831       O  0.52421035  0.50168805  0.20655190    -0.72410
O1832       O  0.52603112  0.99903774  0.29384057    -0.72590
V1833       V  0.97603046  0.99982001  0.25117810     1.35240
V1834       V  0.52413693  0.00038973  0.25017522     1.35170
C1835       C  0.50136556  0.99975346  0.30930977     0.76840
C1836       C  0.49892298  0.00112457  0.19212837     0.76890
C1837       C  0.00098644  0.94142706  0.24980491     0.76760
C1838       C  0.99904692  0.55876716  0.25160104     0.76730
O1839       O  0.52530918  0.74898411  0.29432124    -0.72400
O1840       O  0.52544855  0.74876967  0.20692207    -0.72620
O1841       O  0.52692325  0.79283613  0.25034807    -0.72480
O1842       O  0.52382976  0.70521131  0.25064818    -0.72490
O1843       O  0.97377834  0.70726000  0.24833997    -0.72450
O1844       O  0.97690791  0.79465537  0.25305814    -0.72470
O1845       O  0.97554410  0.75348587  0.20685139    -0.72410
O1846       O  0.97523552  0.74877579  0.29416598    -0.72590
V1847       V  0.52442437  0.74902312  0.25057775     1.35240
V1848       V  0.97632706  0.75098135  0.25055625     1.35170
C1849       C  0.00022638  0.74824061  0.30912897     0.76840
C1850       C  0.00057913  0.75163942  0.19203978     0.76890
C1851       C  0.00240526  0.80859792  0.25220514     0.76760
C1852       C  0.99827885  0.69141410  0.24921338     0.76730
O1853       O  0.72601584  0.00046620  0.29308871    -0.72400
O1854       O  0.72530626  0.99731393  0.20577391    -0.72620
O1855       O  0.72691629  0.95534472  0.25126245    -0.72480
O1856       O  0.72432760  0.54272402  0.24780537    -0.72490
O1857       O  0.77430840  0.54388258  0.25103874    -0.72450
O1858       O  0.77682688  0.95643620  0.24728996    -0.72470
O1859       O  0.77513819  0.00214049  0.20535989    -0.72410
O1860       O  0.77597761  0.99840515  0.29264843    -0.72590
V1861       V  0.72658012  0.99900397  0.24943167     1.35240
V1862       V  0.77463388  0.00018678  0.24903470     1.35170
C1863       C  0.75112890  0.99894350  0.30782305     0.76840
C1864       C  0.75006043  0.00006682  0.19068973     0.76890
C1865       C  0.75229147  0.94101276  0.24986531     0.76760
C1866       C  0.74888547  0.55816365  0.24981252     0.76730
O1867       O  0.77502129  0.75007713  0.29241791    -0.72400
O1868       O  0.77495219  0.74749492  0.20501681    -0.72620
O1869       O  0.77622029  0.79244671  0.24728119    -0.72480
O1870       O  0.77402298  0.70512365  0.25008815    -0.72490
O1871       O  0.72405664  0.70645240  0.24647851    -0.72450
O1872       O  0.72626082  0.79394165  0.25064156    -0.72470
O1873       O  0.72509041  0.75228290  0.20508681    -0.72410
O1874       O  0.72492833  0.74821792  0.29225388    -0.72590
V1875       V  0.77411228  0.74879980  0.24871146     1.35240
V1876       V  0.72602028  0.75018025  0.24865020     1.35170
C1877       C  0.74992779  0.74884043  0.30712856     0.76840
C1878       C  0.75001894  0.75041056  0.19017848     0.76890
C1879       C  0.75163087  0.80808134  0.24867299     0.76760
C1880       C  0.74875037  0.69092664  0.24797500     0.76730
O1881       O  0.54323256  0.52373761  0.50306056    -0.72400
O1882       O  0.95595423  0.52565807  0.99865194    -0.72620
O1883       O  0.49744813  0.52457523  0.04446402    -0.72480
O1884       O  0.00194757  0.52461773  0.45716263    -0.72490
O1885       O  0.49635670  0.97480102  0.45711249    -0.72450
O1886       O  0.00107281  0.97457295  0.04436828    -0.72470
O1887       O  0.95510208  0.97574644  0.50321582    -0.72410
O1888       O  0.54249089  0.97384738  0.99858158    -0.72590
V1889       V  0.49961104  0.52373040  0.00080797     1.35240
V1890       V  0.99877001  0.97564743  0.00076452     1.35170
C1891       C  0.55777028  0.49849377  0.00129830     0.76840
C1892       C  0.94066589  0.50106940  0.00137111     0.76890
C1893       C  0.49957279  0.49955566  0.05928945     0.76760
C1894       C  0.49908382  0.49972425  0.44230451     0.76730
O1895       O  0.50133267  0.72370758  0.45702769    -0.72400
O1896       O  0.99870799  0.72428431  0.04442338    -0.72620
O1897       O  0.95613888  0.72377305  0.49925261    -0.72480
O1898       O  0.54373009  0.72417786  0.00207964    -0.72490
O1899       O  0.54315990  0.77407705  0.49727125    -0.72450
O1900       O  0.95581181  0.77374318  0.00344622    -0.72470
O1901       O  0.50226057  0.77424145  0.04401062    -0.72410
O1902       O  0.99643162  0.77361107  0.45678210    -0.72590
V1903       V  0.99994150  0.72490103  0.50070543     1.35240
V1904       V  0.99945598  0.77299596  0.00039520     1.35170
C1905       C  0.99844637  0.74853983  0.44203623     0.76840
C1906       C  0.00095323  0.74935774  0.05912709     0.76890
C1907       C  0.94110799  0.74870599  0.00166048     0.76760
C1908       C  0.55833186  0.74917643  0.99915766     0.76730
O1909       O  0.74653378  0.52438280  0.45574719    -0.72400
O1910       O  0.75065233  0.52400784  0.04295049    -0.72620
O1911       O  0.79234973  0.52535626  0.49718222    -0.72480
O1912       O  0.70498732  0.52291345  0.00136514    -0.72490
O1913       O  0.70656983  0.97307370  0.49677801    -0.72450
O1914       O  0.79381544  0.97541204  0.00132282    -0.72470
O1915       O  0.74789662  0.97399757  0.04272646    -0.72410
O1916       O  0.75246575  0.97458771  0.45539928    -0.72590
V1917       V  0.74868119  0.52325009  0.49932029     1.35240
V1918       V  0.75017490  0.97518085  0.99906197     1.35170
C1919       C  0.74930628  0.99958127  0.44074051     0.76840
C1920       C  0.74887751  0.99897087  0.05774059     0.76890
C1921       C  0.80794765  0.00073320  0.99905097     0.76760
C1922       C  0.69085805  0.99757169  0.99892327     0.76730
O1923       O  0.74813526  0.77570764  0.04278759    -0.72400
O1924       O  0.75114266  0.77666408  0.45550827    -0.72620
O1925       O  0.70588591  0.77618125  0.99755042    -0.72480
O1926       O  0.79343651  0.77631182  0.50079866    -0.72490
O1927       O  0.79368476  0.72638623  0.99615556    -0.72450
O1928       O  0.70629905  0.72616869  0.50103184    -0.72470
O1929       O  0.74795581  0.72683100  0.45494775    -0.72410
O1930       O  0.75240663  0.72576008  0.04218602    -0.72590
V1931       V  0.74964812  0.77529309  0.99914287     1.35240
V1932       V  0.75001582  0.72721343  0.49858287     1.35170
C1933       C  0.75073013  0.75059313  0.05735315     0.76840
C1934       C  0.74994054  0.75191153  0.44019634     0.76890
C1935       C  0.69122144  0.75114980  0.99965828     0.76760
C1936       C  0.80842456  0.75137327  0.99824427     0.76730
C1937       C  0.90717494  0.74871622  0.00183322    -0.06750
C1938       C  0.89163969  0.73451590  0.47735662    -0.17870
C1939       C  0.85948857  0.73600718  0.47505135     0.10450
C1940       C  0.84234707  0.75130304  0.99814083    -0.06670
C1941       C  0.85787322  0.76548389  0.02262797    -0.17910
C1942       C  0.89002899  0.76404555  0.02490190     0.10480
S1943       S  0.84177479  0.71940423  0.44136991    -0.32870
S1944       S  0.90773820  0.78081575  0.05849291    -0.32880
H1945       H  0.93143789  0.75871212  0.06084509     0.28490
H1946       H  0.81822958  0.74166899  0.43894397     0.28490
H1947       H  0.90472012  0.72313006  0.45933653     0.19080
H1948       H  0.84478447  0.77685480  0.04065268     0.19090
C1949       C  0.59231164  0.74928792  0.99829740    -0.06750
C1950       C  0.60852183  0.73404696  0.02175907    -0.17870
C1951       C  0.64069792  0.73518906  0.02332786     0.10450
C1952       C  0.65728219  0.75107902  0.00035544    -0.06670
C1953       C  0.64113297  0.76625156  0.47680160    -0.17910
C1954       C  0.60890772  0.76519475  0.47530435     0.10480
S1955       S  0.65914870  0.71739952  0.05605803    -0.32870
S1956       S  0.59042774  0.78304436  0.44263156    -0.32880
H1957       H  0.56683408  0.76105853  0.44002158     0.28490
H1958       H  0.68256240  0.73956311  0.05881711     0.28490
H1959       H  0.59600524  0.72197049  0.03962134     0.19080
H1960       H  0.65377918  0.77815189  0.45886430     0.19090
C1961       C  0.84186801  0.00135310  0.99909643    -0.06750
C1962       C  0.85751187  0.98364690  0.02118011    -0.17870
C1963       C  0.88965406  0.98409187  0.02319656     0.10450
C1964       C  0.90675294  0.00187851  0.00205683    -0.06670
C1965       C  0.89112611  0.51990014  0.48019642    -0.17910
C1966       C  0.85893614  0.51953197  0.47823052     0.10480
S1967       S  0.90735392  0.96284027  0.05424499    -0.32870
S1968       S  0.84121973  0.54121936  0.44749757    -0.32880
H1969       H  0.81786588  0.51961807  0.44157575     0.28490
H1970       H  0.93080440  0.98448140  0.05970213     0.28490
H1971       H  0.84453885  0.97006956  0.03758516     0.19080
H1972       H  0.90412535  0.53342855  0.46377463     0.19090
C1973       C  0.65684033  0.99681065  0.99948856    -0.06750
C1974       C  0.64133072  0.51771141  0.01873298    -0.17870
C1975       C  0.60917065  0.51817680  0.02056779     0.10450
C1976       C  0.59177627  0.99779871  0.00203758    -0.06670
C1977       C  0.60728255  0.97684863  0.48279929    -0.17910
C1978       C  0.63949283  0.97612286  0.48135621     0.10480
S1979       S  0.59212903  0.54474931  0.04772199    -0.32870
S1980       S  0.65706338  0.95019747  0.45410814    -0.32880
H1981       H  0.66983473  0.93148186  0.47732400     0.28490
H1982       H  0.56775604  0.52545893  0.05648422     0.28490
H1983       H  0.65442122  0.53341772  0.03302250     0.19080
H1984       H  0.59420731  0.96140754  0.46821217     0.19090
C1985       C  0.75137781  0.75045468  0.09127724    -0.06750
C1986       C  0.73110444  0.77014922  0.10706542    -0.17870
C1987       C  0.73031262  0.77092544  0.13922585     0.10450
C1988       C  0.75012636  0.75131809  0.15623968    -0.06670
C1989       C  0.77057386  0.73178501  0.14042389    -0.17910
C1990       C  0.77154317  0.73124662  0.10825012     0.10480
S1991       S  0.70407650  0.79807334  0.15684809    -0.32870
S1992       S  0.79981065  0.70645747  0.09036747    -0.32880
H1993       H  0.80764793  0.72750136  0.06702984     0.28490
H1994       H  0.72380575  0.80630586  0.18110207     0.28490
H1995       H  0.71566792  0.78507029  0.09420694     0.19080
H1996       H  0.78595701  0.71678045  0.15324600     0.19090
C1997       C  0.74976808  0.74900303  0.34089256    -0.06750
C1998       C  0.75706836  0.77655309  0.35595266    -0.17870
C1999       C  0.75798557  0.77826782  0.38809741     0.10450
C2000       C  0.75072230  0.75184243  0.40593915    -0.06670
C2001       C  0.74389448  0.72412333  0.39050617    -0.17910
C2002       C  0.74332061  0.72239627  0.35835948     0.10480
S2003       S  0.76975333  0.81458079  0.40438235    -0.32870
S2004       S  0.73607916  0.68507974  0.34139048    -0.32880
H2005       H  0.72223330  0.69543112  0.31413481     0.28490
H2006       H  0.79261449  0.80109195  0.42310186     0.28490
H2007       H  0.76250766  0.79686074  0.34248501     0.19080
H2008       H  0.73878192  0.70347437  0.40353140     0.19090
C2009       C  0.74824953  0.99913976  0.09173923    -0.06750
C2010       C  0.76681284  0.52048455  0.10736066    -0.17870
C2011       C  0.76746339  0.52166449  0.13953391     0.10450
C2012       C  0.74956546  0.00067105  0.15673814    -0.06670
C2013       C  0.73065767  0.97962136  0.14116251    -0.17910
C2014       C  0.72958918  0.97879533  0.10897055     0.10480
S2015       S  0.79053300  0.55134260  0.15714900    -0.32870
S2016       S  0.70296420  0.95223186  0.09142424    -0.32880
H2017       H  0.69331047  0.97277768  0.06824525     0.28490
H2018       H  0.76936200  0.55792787  0.18081382     0.28490
H2019       H  0.78087867  0.53646939  0.09439764     0.19080
H2020       H  0.71653913  0.96372684  0.15418123     0.19090
C2021       C  0.75113390  0.99821464  0.34192922    -0.06750
C2022       C  0.72578452  0.01109943  0.35756226    -0.17870
C2023       C  0.72480336  0.01216782  0.38970828     0.10450
C2024       C  0.74945512  0.99978309  0.40690871    -0.06670
C2025       C  0.77448482  0.98632741  0.39152595    -0.17910
C2026       C  0.77557846  0.98523411  0.35936208     0.10480
S2027       S  0.69062154  0.52756530  0.40762774    -0.32870
S2028       S  0.80807927  0.46561418  0.34234293    -0.32880
H2029       H  0.79013353  0.94899022  0.32109849     0.28490
H2030       H  0.70660274  0.05078611  0.42350850     0.28490
H2031       H  0.70666352  0.02077768  0.34468163     0.19080
H2032       H  0.79324071  0.47632854  0.40471901     0.19090
C2033       C  0.75312653  0.90705760  0.25102922    -0.06750
C2034       C  0.77259228  0.89116490  0.23065622    -0.17870
C2035       C  0.77229931  0.85893469  0.22895048     0.10450
C2036       C  0.75242931  0.84205624  0.24846139    -0.06670
C2037       C  0.73333558  0.85798608  0.26915837    -0.17910
C2038       C  0.73390350  0.89015260  0.27107117     0.10480
S2039       S  0.79675151  0.84108855  0.20038969    -0.32870
S2040       S  0.71092212  0.90809451  0.30074284    -0.32880
H2041       H  0.73247566  0.93125982  0.30758965     0.28490
H2042       H  0.77646386  0.81703147  0.19305795     0.28490
H2043       H  0.78733227  0.90398593  0.21516634     0.19080
H2044       H  0.71858906  0.84521601  0.28468777     0.19090
C2045       C  0.74796491  0.59207996  0.25053010    -0.06750
C2046       C  0.73030341  0.60771330  0.22838675    -0.17870
C2047       C  0.73059304  0.63994333  0.22656360     0.10450
C2048       C  0.74829804  0.65699882  0.24784092    -0.06670
C2049       C  0.76577113  0.64133923  0.27008864    -0.17910
C2050       C  0.76543388  0.60917278  0.27195418     0.10480
S2051       S  0.70951811  0.65778703  0.19548533    -0.32870
S2052       S  0.78651190  0.59140448  0.30308294    -0.32880
H2053       H  0.76507084  0.56768612  0.30813521     0.28490
H2054       H  0.73114619  0.68127654  0.19015091     0.28490
H2055       H  0.71715265  0.59469130  0.21165904     0.19080
H2056       H  0.77909781  0.65431645  0.28671310     0.19090
C2057       C  0.00170790  0.74981589  0.09314807    -0.06750
C2058       C  0.98560511  0.77332638  0.10864910    -0.17870
C2059       C  0.98501971  0.77471959  0.14084653     0.10450
C2060       C  0.00093051  0.75214145  0.15813022    -0.06670
C2061       C  0.51756247  0.72907852  0.14269662    -0.17910
C2062       C  0.51799222  0.72750963  0.11055959     0.10480
S2063       S  0.96453833  0.80643465  0.15841385    -0.32870
S2064       S  0.54055832  0.69704696  0.09340193    -0.32880
H2065       H  0.55170022  0.71536317  0.06925824     0.28490
H2066       H  0.98515914  0.81011937  0.18310024     0.28490
H2067       H  0.97326341  0.79072192  0.09557592     0.19080
H2068       H  0.53029667  0.71202460  0.15582283     0.19090
C2069       C  0.99985234  0.74726273  0.34311812    -0.06750
C2070       C  0.97763948  0.76496896  0.35872935    -0.17870
C2071       C  0.97640354  0.76559560  0.39089674     0.10450
C2072       C  0.99791297  0.74816862  0.40810590    -0.06670
C2073       C  0.51980350  0.73006463  0.39255730    -0.17910
C2074       C  0.52097673  0.72932898  0.36037392     0.10480
S2075       S  0.94622248  0.78825048  0.40849026    -0.32870
S2076       S  0.54926223  0.70424237  0.34293349    -0.32880
H2077       H  0.53022381  0.69477159  0.31856505     0.28490
H2078       H  0.94056726  0.76738660  0.43259132     0.28490
H2079       H  0.96108489  0.77850853  0.34575672     0.19080
H2080       H  0.53624004  0.71644677  0.40561571     0.19090
C2081       C  0.49999682  0.49968392  0.09321364    -0.06750
C2082       C  0.97909601  0.51897396  0.10874167    -0.17870
C2083       C  0.97810036  0.52000969  0.14092572     0.10450
C2084       C  0.49867398  0.50148087  0.15817647    -0.06670
C2085       C  0.51981969  0.98251631  0.14261920    -0.17910
C2086       C  0.52054983  0.98113574  0.11048548     0.10480
S2087       S  0.95071675  0.54612156  0.15832249    -0.32870
S2088       S  0.54858350  0.95552334  0.09330282    -0.32880
H2089       H  0.55507566  0.97410167  0.06770757     0.28490
H2090       H  0.96935596  0.55402231  0.18349939     0.28490
H2091       H  0.96325243  0.53326173  0.09566205     0.19080
H2092       H  0.53590966  0.96848737  0.15563337     0.19090
C2093       C  0.50166518  0.50010244  0.34344146    -0.06750
C2094       C  0.97624599  0.98748820  0.35902138    -0.17870
C2095       C  0.97468049  0.98730209  0.39117312     0.10450
C2096       C  0.49913077  0.49981867  0.40845573    -0.06670
C2097       C  0.52452499  0.51245127  0.39313642    -0.17910
C2098       C  0.52612592  0.51279631  0.36095320     0.10480
S2099       S  0.94049800  0.97158547  0.40872797    -0.32870
S2100       S  0.55976497  0.53033825  0.34412909    -0.32880
H2101       H  0.54352078  0.54638488  0.32116962     0.28490
H2102       H  0.93962189  0.99255798  0.43338376     0.28490
H2103       H  0.95731817  0.97770725  0.34606297     0.19080
H2104       H  0.54333247  0.52208386  0.40639961     0.19250
C2105       C  0.00145333  0.90745526  0.24975562    -0.06750
C2106       C  0.98676131  0.89186393  0.27387545    -0.17870
C2107       C  0.98784955  0.85967097  0.27589631     0.10450
C2108       C  0.00332220  0.84252654  0.25292511    -0.06670
C2109       C  0.51820004  0.85810741  0.22890879    -0.17910
C2110       C  0.51706427  0.89031684  0.22686873     0.10480
S2111       S  0.97029892  0.84184995  0.30899432    -0.32870
S2112       S  0.53414864  0.90812089  0.19356548    -0.32880
H2113       H  0.51119756  0.93092873  0.19062560     0.28490
H2114       H  0.99216220  0.81793884  0.31146463     0.28490
H2115       H  0.97509300  0.90491735  0.29173961     0.19080
H2116       H  0.52968294  0.84503736  0.21093936     0.19090
C2117       C  0.99826478  0.59264592  0.25163476    -0.06750
C2118       C  0.99960641  0.60800559  0.22328909    -0.17870
C2119       C  0.99850666  0.64022611  0.22173332     0.10450
C2120       C  0.99713862  0.65756289  0.24919410    -0.06670
C2121       C  0.49597969  0.64223351  0.27756159    -0.17910
C2122       C  0.49611150  0.60998182  0.27909186     0.10480
S2123       S  0.99935556  0.65771699  0.18411915    -0.32870
S2124       S  0.49434463  0.59259399  0.31675724    -0.32880
H2125       H  0.47918167  0.56552618  0.30776935     0.28490
H2126       H  0.98169042  0.68382432  0.19180613     0.28490
H2127       H  0.00134005  0.59480553  0.20216642     0.19080
H2128       H  0.49481441  0.65549622  0.29869357     0.19090
O2129       O  0.97604604  0.50003676  0.79485948    -0.72400
O2130       O  0.97417072  0.99974743  0.70743734    -0.72620
O2131       O  0.97576003  0.95600305  0.75153036    -0.72480
O2132       O  0.97427123  0.54358396  0.75105636    -0.72490
O2133       O  0.52439190  0.54427527  0.75157414    -0.72450
O2134       O  0.52577678  0.95659947  0.74858162    -0.72470
O2135       O  0.52421034  0.50168805  0.70655190    -0.72410
O2136       O  0.52603113  0.99903774  0.79384057    -0.72590
V2137       V  0.97603046  0.99982000  0.75117810     1.35240
V2138       V  0.52413693  0.00038973  0.75017522     1.35170
C2139       C  0.50136556  0.99975345  0.80930977     0.76840
C2140       C  0.49892299  0.00112456  0.69212837     0.76890
C2141       C  0.00098645  0.94142705  0.74980491     0.76760
C2142       C  0.99904692  0.55876715  0.75160104     0.76730
O2143       O  0.52530918  0.74898410  0.79432124    -0.72400
O2144       O  0.52544855  0.74876966  0.70692207    -0.72620
O2145       O  0.52692326  0.79283613  0.75034807    -0.72480
O2146       O  0.52382976  0.70521130  0.75064818    -0.72490
O2147       O  0.97377834  0.70725999  0.74833997    -0.72450
O2148       O  0.97690791  0.79465536  0.75305813    -0.72470
O2149       O  0.97554411  0.75348586  0.70685139    -0.72410
O2150       O  0.97523553  0.74877579  0.79416598    -0.72590
V2151       V  0.52442437  0.74902311  0.75057775     1.35240
V2152       V  0.97632707  0.75098134  0.75055625     1.35170
C2153       C  0.00022638  0.74824061  0.80912897     0.76840
C2154       C  0.00057914  0.75163941  0.69203978     0.76890
C2155       C  0.00240527  0.80859791  0.75220514     0.76760
C2156       C  0.99827885  0.69141409  0.74921339     0.76730
O2157       O  0.72601584  0.00046620  0.79308871    -0.72400
O2158       O  0.72530626  0.99731393  0.70577391    -0.72620
O2159       O  0.72691629  0.95534471  0.75126245    -0.72480
O2160       O  0.72432760  0.54272402  0.74780537    -0.72490
O2161       O  0.77430840  0.54388258  0.75103874    -0.72450
O2162       O  0.77682688  0.95643619  0.74728997    -0.72470
O2163       O  0.77513819  0.00214048  0.70535989    -0.72410
O2164       O  0.77597761  0.99840515  0.79264843    -0.72590
V2165       V  0.72658012  0.99900397  0.74943167     1.35240
V2166       V  0.77463388  0.00018678  0.74903470     1.35170
C2167       C  0.75112890  0.99894350  0.80782305     0.76840
C2168       C  0.75006043  0.00006681  0.69068973     0.76890
C2169       C  0.75229147  0.94101276  0.74986531     0.76760
C2170       C  0.74888547  0.55816364  0.74981252     0.76730
O2171       O  0.77502129  0.75007712  0.79241791    -0.72400
O2172       O  0.77495219  0.74749491  0.70501681    -0.72620
O2173       O  0.77622029  0.79244671  0.74728119    -0.72480
O2174       O  0.77402298  0.70512365  0.75008815    -0.72490
O2175       O  0.72405664  0.70645240  0.74647851    -0.72450
O2176       O  0.72626082  0.79394164  0.75064156    -0.72470
O2177       O  0.72509041  0.75228290  0.70508681    -0.72410
O2178       O  0.72492833  0.74821792  0.79225388    -0.72590
V2179       V  0.77411228  0.74879980  0.74871146     1.35240
V2180       V  0.72602028  0.75018024  0.74865020     1.35170
C2181       C  0.74992778  0.74884043  0.80712856     0.76840
C2182       C  0.75001894  0.75041055  0.69017848     0.76890
C2183       C  0.75163087  0.80808133  0.74867299     0.76760
C2184       C  0.74875036  0.69092664  0.74797500     0.76730
O2185       O  0.54323256  0.52373760  0.00306056    -0.72400
O2186       O  0.95595424  0.52565808  0.49865194    -0.72620
O2187       O  0.49744813  0.52457523  0.54446402    -0.72480
O2188       O  0.00194757  0.52461773  0.95716262    -0.72490
O2189       O  0.49635670  0.97480102  0.95711249    -0.72450
O2190       O  0.00107281  0.97457295  0.54436828    -0.72470
O2191       O  0.95510208  0.97574644  0.00321582    -0.72410
O2192       O  0.54249089  0.97384738  0.49858158    -0.72590
V2193       V  0.49961104  0.52373041  0.50080797     1.35240
V2194       V  0.99877001  0.97564743  0.50076452     1.35170
C2195       C  0.55777028  0.49849377  0.50129830     0.76840
C2196       C  0.94066589  0.50106941  0.50137110     0.76890
C2197       C  0.49957279  0.49955567  0.55928945     0.76760
C2198       C  0.49908382  0.49972425  0.94230451     0.76730
O2199       O  0.50133268  0.72370758  0.95702769    -0.72400
O2200       O  0.99870799  0.72428431  0.54442338    -0.72620
O2201       O  0.95613888  0.72377305  0.99925260    -0.72480
O2202       O  0.54373009  0.72417786  0.50207963    -0.72490
O2203       O  0.54315990  0.77407705  0.99727125    -0.72450
O2204       O  0.95581180  0.77374317  0.50344623    -0.72470
O2205       O  0.50226056  0.77424144  0.54401062    -0.72410
O2206       O  0.99643162  0.77361106  0.95678209    -0.72590
V2207       V  0.99994150  0.72490103  0.00070543     1.35240
V2208       V  0.99945598  0.77299596  0.50039520     1.35170
C2209       C  0.99844637  0.74853983  0.94203623     0.76840
C2210       C  0.00095323  0.74935774  0.55912709     0.76890
C2211       C  0.94110799  0.74870599  0.50166049     0.76760
C2212       C  0.55833186  0.74917644  0.49915765     0.76730
O2213       O  0.74653378  0.52438279  0.95574719    -0.72400
O2214       O  0.75065233  0.52400785  0.54295049    -0.72620
O2215       O  0.79234973  0.52535624  0.99718222    -0.72480
O2216       O  0.70498732  0.52291346  0.50136514    -0.72490
O2217       O  0.70656983  0.97307370  0.99677802    -0.72450
O2218       O  0.79381544  0.97541204  0.50132282    -0.72470
O2219       O  0.74789662  0.97399756  0.54272646    -0.72410
O2220       O  0.75246575  0.97458772  0.95539928    -0.72590
V2221       V  0.74868119  0.52325008  0.99932029     1.35240
V2222       V  0.75017490  0.97518084  0.49906197     1.35170
C2223       C  0.74930628  0.99958127  0.94074051     0.76840
C2224       C  0.74887751  0.99897086  0.55774059     0.76890
C2225       C  0.80794765  0.00073319  0.49905097     0.76760
C2226       C  0.69085805  0.99757168  0.49892327     0.76730
O2227       O  0.74813526  0.77570764  0.54278760    -0.72400
O2228       O  0.75114266  0.77666408  0.95550826    -0.72620
O2229       O  0.70588591  0.77618124  0.49755043    -0.72480
O2230       O  0.79343651  0.77631182  0.00079866    -0.72490
O2231       O  0.79368476  0.72638623  0.49615556    -0.72450
O2232       O  0.70629904  0.72616870  0.00103185    -0.72470
O2233       O  0.74795580  0.72683100  0.95494776    -0.72410
O2234       O  0.75240663  0.72576008  0.54218602    -0.72590
V2235       V  0.74964812  0.77529308  0.49914288     1.35240
V2236       V  0.75001581  0.72721343  0.99858287     1.35170
C2237       C  0.75073013  0.75059312  0.55735315     0.76840
C2238       C  0.74994053  0.75191153  0.94019634     0.76890
C2239       C  0.69122144  0.75114979  0.49965828     0.76760
C2240       C  0.80842456  0.75137326  0.49824428     0.76730
C2241       C  0.90717494  0.74871621  0.50183322    -0.06750
C2242       C  0.89163969  0.73451588  0.97735664    -0.17870
C2243       C  0.85948857  0.73600715  0.97505137     0.10450
C2244       C  0.84234707  0.75130304  0.49814084    -0.06670
C2245       C  0.85787322  0.76548385  0.52262800    -0.17910
C2246       C  0.89002899  0.76404550  0.52490193     0.10480
S2247       S  0.84177479  0.71940415  0.94136994    -0.32870
S2248       S  0.90773820  0.78081565  0.55849296    -0.32880
H2249       H  0.93143789  0.75871203  0.56084510     0.28490
H2250       H  0.81822959  0.74166891  0.93894398     0.28490
H2251       H  0.90472012  0.72313002  0.95933656     0.19080
H2252       H  0.84478447  0.77685474  0.54065273     0.19090
C2253       C  0.59231163  0.74928793  0.49829739    -0.06750
C2254       C  0.60852183  0.73404686  0.52175900    -0.17870
C2255       C  0.64069792  0.73518896  0.52332779     0.10450
C2256       C  0.65728219  0.75107901  0.50035544    -0.06670
C2257       C  0.64113298  0.76625148  0.97680154    -0.17910
C2258       C  0.60890772  0.76519466  0.97530430     0.10480
S2259       S  0.65914869  0.71739930  0.55605790    -0.32870
S2260       S  0.59042774  0.78304414  0.94263143    -0.32880
H2261       H  0.56683407  0.76105831  0.94002156     0.28490
H2262       H  0.68256238  0.73956289  0.55881708     0.28490
H2263       H  0.59600523  0.72197032  0.53962122     0.19080
H2264       H  0.65377918  0.77815173  0.95886419     0.19090
C2265       C  0.84186801  0.00135309  0.49909643    -0.06750
C2266       C  0.85751187  0.98364688  0.52118011    -0.17870
C2267       C  0.88965406  0.98409186  0.52319656     0.10450
C2268       C  0.90675294  0.00187850  0.50205684    -0.06670
C2269       C  0.89112611  0.51990013  0.98019642    -0.17910
C2270       C  0.85893614  0.51953196  0.97823052     0.10480
S2271       S  0.90735392  0.96284025  0.55424499    -0.32870
S2272       S  0.84121973  0.54121935  0.94749758    -0.32880
H2273       H  0.81786589  0.51961806  0.94157575     0.28490
H2274       H  0.93080440  0.98448138  0.55970213     0.28490
H2275       H  0.84453886  0.97006954  0.53758515     0.19080
H2276       H  0.90412535  0.53342854  0.96377464     0.19090
C2277       C  0.65684033  0.99681064  0.49948856    -0.06750
C2278       C  0.64133072  0.51771141  0.51873298    -0.17870
C2279       C  0.60917065  0.51817680  0.52056779     0.10450
C2280       C  0.59177627  0.99779871  0.50203758    -0.06670
C2281       C  0.60728255  0.97684863  0.98279930    -0.17910
C2282       C  0.63949283  0.97612285  0.98135622     0.10480
S2283       S  0.59212903  0.54474932  0.54772199    -0.32870
S2284       S  0.65706338  0.95019746  0.95410816    -0.32880
H2285       H  0.66983473  0.93148186  0.97732402     0.28490
H2286       H  0.56775604  0.52545893  0.55648422     0.28490
H2287       H  0.65442122  0.53341773  0.53302250     0.19080
H2288       H  0.59420730  0.96140753  0.96821219     0.19090
C2289       C  0.75137780  0.75045467  0.59127724    -0.06750
C2290       C  0.73110443  0.77014920  0.60706542    -0.17870
C2291       C  0.73031262  0.77092543  0.63922585     0.10450
C2292       C  0.75012636  0.75131808  0.65623968    -0.06670
C2293       C  0.77057386  0.73178500  0.64042389    -0.17910
C2294       C  0.77154316  0.73124661  0.60825012     0.10480
S2295       S  0.70407649  0.79807333  0.65684809    -0.32870
S2296       S  0.79981064  0.70645746  0.59036747    -0.32880
H2297       H  0.80764792  0.72750135  0.56702984     0.28490
H2298       H  0.72380574  0.80630585  0.68110207     0.28490
H2299       H  0.71566791  0.78507027  0.59420694     0.19080
H2300       H  0.78595700  0.71678044  0.65324600     0.19090
C2301       C  0.74976808  0.74900303  0.84089256    -0.06750
C2302       C  0.75706837  0.77655308  0.85595266    -0.17870
C2303       C  0.75798558  0.77826782  0.88809741     0.10450
C2304       C  0.75072229  0.75184243  0.90593915    -0.06670
C2305       C  0.74389447  0.72412333  0.89050617    -0.17910
C2306       C  0.74332060  0.72239627  0.85835949     0.10480
S2307       S  0.76975335  0.81458078  0.90438235    -0.32870
S2308       S  0.73607914  0.68507973  0.84139049    -0.32880
H2309       H  0.72223330  0.69543112  0.81413481     0.28490
H2310       H  0.79261450  0.80109194  0.92310186     0.28490
H2311       H  0.76250767  0.79686073  0.84248501     0.19080
H2312       H  0.73878191  0.70347437  0.90353140     0.19090
C2313       C  0.74824953  0.99913976  0.59173923    -0.06750
C2314       C  0.76681284  0.52048456  0.60736067    -0.17870
C2315       C  0.76746339  0.52166450  0.63953391     0.10450
C2316       C  0.74956546  0.00067104  0.65673814    -0.06670
C2317       C  0.73065767  0.97962135  0.64116251    -0.17910
C2318       C  0.72958918  0.97879533  0.60897055     0.10480
S2319       S  0.79053301  0.55134260  0.65714900    -0.32870
S2320       S  0.70296420  0.95223185  0.59142424    -0.32880
H2321       H  0.69331047  0.97277768  0.56824525     0.28490
H2322       H  0.76936200  0.55792787  0.68081383     0.28490
H2323       H  0.78087867  0.53646940  0.59439764     0.19080
H2324       H  0.71653913  0.96372684  0.65418123     0.19090
C2325       C  0.75113391  0.99821464  0.84192922    -0.06750
C2326       C  0.72578451  0.01109941  0.85756226    -0.17870
C2327       C  0.72480334  0.01216781  0.88970827     0.10450
C2328       C  0.74945512  0.99978309  0.90690871    -0.06670
C2329       C  0.77448483  0.98632744  0.89152595    -0.17910
C2330       C  0.77557848  0.98523413  0.85936208     0.10480
S2331       S  0.69062156  0.52756532  0.90762774    -0.32870
S2332       S  0.80807925  0.46561412  0.84234292    -0.32880
H2333       H  0.79013357  0.94899025  0.82109850     0.28490
H2334       H  0.70660269  0.05078606  0.92350852     0.28490
H2335       H  0.70666351  0.02077764  0.84468163     0.19080
H2336       H  0.79324069  0.47632850  0.90471901     0.19090
C2337       C  0.75312653  0.90705759  0.75102923    -0.06750
C2338       C  0.77259228  0.89116489  0.73065622    -0.17870
C2339       C  0.77229930  0.85893468  0.72895048     0.10450
C2340       C  0.75242931  0.84205623  0.74846139    -0.06670
C2341       C  0.73333558  0.85798607  0.76915837    -0.17910
C2342       C  0.73390350  0.89015259  0.77107117     0.10480
S2343       S  0.79675150  0.84108854  0.70038968    -0.32870
S2344       S  0.71092213  0.90809451  0.80074284    -0.32880
H2345       H  0.73247567  0.93125981  0.80758965     0.28490
H2346       H  0.77646385  0.81703146  0.69305795     0.28490
H2347       H  0.78733227  0.90398592  0.71516633     0.19080
H2348       H  0.71858906  0.84521601  0.78468777     0.19090
C2349       C  0.74796491  0.59207996  0.75053010    -0.06750
C2350       C  0.73030342  0.60771330  0.72838675    -0.17870
C2351       C  0.73059304  0.63994333  0.72656360     0.10450
C2352       C  0.74829804  0.65699882  0.74784092    -0.06670
C2353       C  0.76577112  0.64133922  0.77008864    -0.17910
C2354       C  0.76543387  0.60917277  0.77195418     0.10480
S2355       S  0.70951812  0.65778702  0.69548532    -0.32870
S2356       S  0.78651188  0.59140448  0.80308295    -0.32880
H2357       H  0.76507083  0.56768611  0.80813522     0.28490
H2358       H  0.73114621  0.68127654  0.69015091     0.28490
H2359       H  0.71715266  0.59469130  0.71165904     0.19080
H2360       H  0.77909780  0.65431645  0.78671311     0.19090
C2361       C  0.00170790  0.74981588  0.59314807    -0.06750
C2362       C  0.98560511  0.77332637  0.60864910    -0.17870
C2363       C  0.98501971  0.77471958  0.64084653     0.10450
C2364       C  0.00093051  0.75214144  0.65813022    -0.06670
C2365       C  0.51756248  0.72907851  0.64269662    -0.17910
C2366       C  0.51799222  0.72750962  0.61055959     0.10480
S2367       S  0.96453833  0.80643464  0.65841385    -0.32870
S2368       S  0.54055834  0.69704697  0.59340192    -0.32880
H2369       H  0.55170025  0.71536319  0.56925825     0.28490
H2370       H  0.98515914  0.81011936  0.68310024     0.28490
H2371       H  0.97326341  0.79072191  0.59557592     0.19080
H2372       H  0.53029668  0.71202459  0.65582283     0.19090
C2373       C  0.99985234  0.74726273  0.84311812    -0.06750
C2374       C  0.97763948  0.76496896  0.85872935    -0.17870
C2375       C  0.97640355  0.76559560  0.89089674     0.10450
C2376       C  0.99791297  0.74816861  0.90810590    -0.06670
C2377       C  0.51980349  0.73006462  0.89255730    -0.17910
C2378       C  0.52097672  0.72932897  0.86037392     0.10480
S2379       S  0.94622249  0.78825049  0.90849026    -0.32870
S2380       S  0.54926222  0.70424235  0.84293349    -0.32880
H2381       H  0.53022380  0.69477158  0.81856504     0.28490
H2382       H  0.94056726  0.76738660  0.93259131     0.28490
H2383       H  0.96108490  0.77850854  0.84575672     0.19080
H2384       H  0.53624003  0.71644676  0.90561571     0.19090
C2385       C  0.49999682  0.49968392  0.59321364    -0.06750
C2386       C  0.97909602  0.51897397  0.60874167    -0.17870
C2387       C  0.97810036  0.52000969  0.64092573     0.10450
C2388       C  0.49867397  0.50148087  0.65817647    -0.06670
C2389       C  0.51981969  0.98251630  0.64261920    -0.17910
C2390       C  0.52054984  0.98113573  0.61048548     0.10480
S2391       S  0.95071675  0.54612156  0.65832249    -0.32870
S2392       S  0.54858350  0.95552333  0.59330282    -0.32880
H2393       H  0.55507566  0.97410166  0.56770756     0.28490
H2394       H  0.96935596  0.55402231  0.68349940     0.28490
H2395       H  0.96325243  0.53326174  0.59566206     0.19080
H2396       H  0.53590967  0.96848736  0.65563337     0.19090
C2397       C  0.50166517  0.50010243  0.84344146    -0.06750
C2398       C  0.97624600  0.98748819  0.85902138    -0.17870
C2399       C  0.97468050  0.98730208  0.89117312     0.10450
C2400       C  0.49913077  0.49981866  0.90845573    -0.06670
C2401       C  0.52452499  0.51245125  0.89313642    -0.17910
C2402       C  0.52612592  0.51279629  0.86095320     0.10480
S2403       S  0.94049801  0.97158545  0.90872797    -0.32870
S2404       S  0.55976497  0.53033823  0.84412909    -0.32880
H2405       H  0.54352078  0.54638487  0.82116962     0.28490
H2406       H  0.93962189  0.99255797  0.93338375     0.28490
H2407       H  0.95731818  0.97770723  0.84606297     0.19080
H2408       H  0.54333247  0.52208384  0.90639961     0.19250
C2409       C  0.00145334  0.90745525  0.74975562    -0.06750
C2410       C  0.98676131  0.89186392  0.77387544    -0.17870
C2411       C  0.98784956  0.85967096  0.77589630     0.10450
C2412       C  0.00332221  0.84252653  0.75292511    -0.06670
C2413       C  0.51820005  0.85810740  0.72890879    -0.17910
C2414       C  0.51706428  0.89031683  0.72686873     0.10480
S2415       S  0.97029892  0.84184995  0.80899431    -0.32870
S2416       S  0.53414866  0.90812088  0.69356549    -0.32880
H2417       H  0.51119758  0.93092872  0.69062560     0.28490
H2418       H  0.99216220  0.81793884  0.81146463     0.28490
H2419       H  0.97509300  0.90491734  0.79173961     0.19080
H2420       H  0.52968295  0.84503735  0.71093936     0.19090
C2421       C  0.99826478  0.59264592  0.75163476    -0.06750
C2422       C  0.99960642  0.60800558  0.72328909    -0.17870
C2423       C  0.99850666  0.64022611  0.72173332     0.10450
C2424       C  0.99713863  0.65756288  0.74919410    -0.06670
C2425       C  0.49597968  0.64223350  0.77756159    -0.17910
C2426       C  0.49611150  0.60998181  0.77909186     0.10480
S2427       S  0.99935557  0.65771698  0.68411915    -0.32870
S2428       S  0.49434463  0.59259398  0.81675724    -0.32880
H2429       H  0.47918167  0.56552618  0.80776935     0.28490
H2430       H  0.98169042  0.68382431  0.69180613     0.28490
H2431       H  0.00134005  0.59480552  0.70216642     0.19080
H2432       H  0.49481441  0.65549622  0.79869357     0.19090
loop_ 
_geom_bond_atom_site_label_1 
_geom_bond_atom_site_label_2 
_geom_bond_distance 
_geom_bond_site_symmetry_2 
_ccdc_geom_bond_type 
O1          V617   1.898   1_545  S
O1         C1835   1.265   1_545  A
O2            V9   1.902       .  S
O2         C1228   1.265       .  A
O3            V9   1.900       .  S
O3           C13   1.264       .  A
O4          V617   1.899   1_545  S
O4           C14   1.263       .  A
O5          V618   1.904       .  S
O5         C1230   1.264   1_455  A
O6           V10   1.901       .  S
O6         C1229   1.264       .  A
O7          V618   1.896       .  S
O7          C620   1.264   1_455  A
O8           V10   1.900       .  S
O8           C11   1.264       .  A
V9          O609   1.898       .  S
V9          O612   1.899       .  S
V9         V1226   2.088       .  T
V10         O613   1.904       .  S
V10         O615   1.896       .  S
V10        V1225   2.088   1_455  T
C11        O1825   1.265   1_455  A
C11         C877   1.483       .  S
C12        O1218   1.265       .  A
C12         O615   1.264   1_655  A
C12         C868   1.475       .  S
C13        O1222   1.264       .  A
C13         C281   1.473       .  S
C14        O1221   1.264       .  A
C14         C293   1.469       .  S
O15          V23   1.901       .  S
O15        C1241   1.265       .  A
O16          V23   1.897       .  S
O16        C1242   1.263       .  A
O17          V23   1.903       .  S
O17        C1243   1.264       .  A
O18          V23   1.900       .  S
O18        C1244   1.263   1_455  A
O19          V24   1.902       .  S
O19          C28   1.264       .  A
O20          V24   1.897       .  S
O20          C27   1.263       .  A
O21          V24   1.902       .  S
O21          C26   1.265       .  A
O22          V24   1.898       .  S
O22          C25   1.264       .  A
V23        V1240   2.088   1_455  T
V24        V1239   2.088       .  T
C25        O1231   1.265       .  A
C25         C245   1.477       .  S
C26        O1232   1.263       .  A
C26         C236   1.473       .  S
C27        O1233   1.264       .  A
C27         C284   1.472       .  S
C28        O1234   1.263       .  A
C28         C296   1.469       .  S
O29          V37   1.898       .  S
O29          C39   1.265       .  A
O30          V37   1.899       .  S
O30          C40   1.264       .  A
O31          V37   1.895       .  S
O31          C41   1.263       .  A
O32         V645   1.899   1_545  S
O32          C42   1.264       .  A
O33         V646   1.896       .  S
O33          C42   1.264       .  A
O34          V38   1.900       .  S
O34          C41   1.264       .  A
O35          V38   1.899       .  S
O35          C40   1.264       .  A
O36          V38   1.897       .  S
O36          C39   1.264       .  A
V37         O640   1.899       .  S
V37          V38   2.086       .  T
V38         O641   1.896       .  S
C39         C197   1.482       .  S
C40         C188   1.475       .  S
C41         C209   1.473       .  S
C42         C221   1.471       .  S
O43          V51   1.900       .  S
O43          C53   1.264       .  A
O44          V51   1.899       .  S
O44          C54   1.265       .  A
O45          V51   1.896       .  S
O45          C55   1.263       .  A
O46          V51   1.895       .  S
O46          C56   1.263       .  A
O47          V52   1.900       .  S
O47          C56   1.265       .  A
O48          V52   1.899       .  S
O48          C55   1.265       .  A
O49          V52   1.895       .  S
O49          C54   1.263       .  A
O50          V52   1.897       .  S
O50          C53   1.263       .  A
V51          V52   2.087       .  T
C53         C173   1.467       .  S
C54         C164   1.475       .  S
C55         C212   1.474       .  S
C56         C224   1.471       .  S
O57         V369   1.895   1_455  S
O57         C371   1.263   1_545  A
O58        V1281   1.898   1_556  S
O58          C68   1.263   1_556  A
O59          V65   1.899       .  S
O59          C69   1.265   1_545  A
O60        V1585   1.899       .  S
O60        C1286   1.264   1_545  A
O61        V1586   1.900       .  S
O61         C678   1.264       .  A
O62          V66   1.897       .  S
O62        C1893   1.263       .  A
O63         V370   1.897       .  S
O63         C980   1.264       .  A
O64        V1282   1.900   1_456  S
O64         C675   1.265   1_556  A
V65         O361   1.895   1_655  S
V65        O1274   1.898   1_554  S
V65        O1580   1.899   1_654  S
V65        V1890   2.085   1_545  T
V66        O1581   1.900   1_554  S
V66         O367   1.897       .  S
V66        O1280   1.900   1_554  S
V66        V1889   2.085       .  T
C67         O361   1.263   1_565  A
C67         O672   1.265   1_554  A
C67         C760   1.476       .  S
C68         O975   1.264   1_545  A
C68         C748   1.472       .  S
C69        O1886   1.263   1_655  A
C69         C257   1.474       .  S
C70        O1276   1.264   1_665  A
C70         O669   1.264       .  A
C70         C272   1.470       .  S
O71        V1295   1.899   1_455  S
O71        C1297   1.264   1_455  A
O72         V383   1.900       .  S
O72          C82   1.265       .  A
O73          V79   1.902       .  S
O73         C387   1.264       .  A
O74        V1599   1.901   1_455  S
O74          C84   1.264   1_554  A
O75        V1600   1.902   1_455  S
O75         C388   1.265       .  A
O76          V80   1.898       .  S
O76          C83   1.264       .  A
O77        V1296   1.899   1_455  S
O77        C1298   1.265       .  A
O78         V384   1.899       .  S
O78          C81   1.264       .  A
V79        O1287   1.899       .  S
V79         O376   1.900       .  S
V79        O1594   1.901       .  S
V79         V384   2.085       .  T
V80        O1595   1.902   1_554  S
V80        O1293   1.899       .  S
V80         O382   1.899   1_554  S
V80         V383   2.085       .  T
C81        O1287   1.264       .  A
C81         C248   1.474       .  S
C82        O1293   1.265       .  A
C82         C233   1.478       .  S
C83         O377   1.264   1_554  A
C83         C113   1.472       .  S
C84         O379   1.265       .  A
C84         C125   1.475       .  S
O85          V93   1.896       .  S
O85         C703   1.263   1_545  A
O86         V397   1.898   1_554  S
O86         C704   1.264   1_545  A
O87          V93   1.899       .  S
O87        C1009   1.264       .  A
O88         V397   1.898   1_554  S
O88         C706   1.265   1_544  A
O89         V398   1.897       .  S
O89         C402   1.263       .  A
O90          V94   1.896   1_554  S
O90          C97   1.264   1_554  A
O91          V94   1.900   1_554  S
O91          C96   1.265       .  A
O92         V398   1.900       .  S
O92          C95   1.264       .  A
V93         O390   1.898       .  S
V93         O392   1.898       .  S
V93        V1006   2.085   1_545  T
V94         O393   1.897       .  S
V94         O396   1.900       .  S
V94        V1005   2.085       .  T
C95         O693   1.263       .  A
C95         C200   1.470       .  S
C96         O694   1.264       .  A
C96         C185   1.477       .  S
C97         O999   1.264       .  A
C97         C137   1.472       .  S
C98         O696   1.265   1_556  A
C98         O393   1.263       .  A
C98         C149   1.476       .  S
O99         V107   1.897   1_554  S
O99         C109   1.264       .  A
O100        V411   1.898       .  S
O100        C110   1.264       .  A
O101        V107   1.900       .  S
O101        C111   1.264       .  A
O102        V411   1.902       .  S
O102        C416   1.264       .  A
O103        V412   1.898       .  S
O103        C112   1.263       .  A
O104        V108   1.900       .  S
O104        C415   1.264       .  A
O105        V108   1.898       .  S
O105        C110   1.266       .  A
O106        V412   1.898   1_554  S
O106        C109   1.264       .  A
V107        O404   1.898       .  S
V107        O406   1.902   1_556  S
V107        V412   2.085       .  T
V108        O407   1.898       .  S
V108        O410   1.898       .  S
V108        V411   2.085       .  T
C109        C161   1.474       .  S
C110        C176   1.489       .  S
C111        O408   1.264   1_556  A
C111        C128   1.473   1_556  S
C112        O406   1.264   1_556  A
C112        C116   1.472       .  S
C113        C118   1.412       .  A
C113        C418   1.402   1_554  A
C114        C115   1.400       .  A
C114        C417   1.402       .  A
C114        H123   1.084       .  S
C115        C420   1.412       .  A
C115        S119   1.804       .  S
C116        C117   1.402   1_556  A
C116        C419   1.412       .  A
C117        C118   1.400       .  A
C117        H124   1.084       .  S
C118        S120   1.803       .  S
S119        H122   1.406       .  S
S120        H121   1.406       .  S
C125        C126   1.402   1_556  A
C125        C434   1.413       .  A
C126        C127   1.399       .  A
C126        H135   1.083       .  S
C127        C128   1.412       .  A
C127        S131   1.804       .  S
C128        C433   1.403   1_554  A
C129        C130   1.400       .  A
C129        C432   1.403       .  A
C129        H136   1.085       .  S
C130        C429   1.413       .  A
C130        S132   1.803       .  S
S131        H134   1.406       .  S
S132        H133   1.406       .  S
C137        C138   1.402   1_556  A
C137       C1054   1.413       .  A
C138        C139   1.397       .  A
C138        H147   1.084       .  S
C139        C140   1.412       .  A
C139        S143   1.804       .  S
C140        C676   1.472       .  S
C140       C1053   1.403   1_554  A
C141        C142   1.399       .  A
C141       C1052   1.403       .  A
C141        H148   1.084       .  S
C142       C1049   1.413       .  A
C142        S144   1.803       .  S
S143        H146   1.407       .  S
S144        H145   1.406       .  S
C149        C758   1.403   1_556  A
C149        C458   1.413       .  A
C150        C151   1.398       .  A
C150        C757   1.403   1_544  A
C150        H159   1.084       .  S
C151        C760   1.415   1_545  A
C151        S155   1.805       .  S
C152        C675   1.476       .  S
C152        C759   1.415       .  A
C152        C457   1.404   1_554  A
C153        C154   1.399       .  A
C153        C456   1.404       .  A
C153        H160   1.084       .  S
C154        C453   1.413       .  A
C154        S156   1.799       .  S
S155        H158   1.404       .  S
S156        H157   1.407       .  S
C161        C162   1.402       .  A
C161        C166   1.413       .  A
C162        C163   1.398       .  A
C162        H171   1.084       .  S
C163        C164   1.415       .  A
C163        S167   1.804       .  S
C164        C165   1.403       .  A
C165        C166   1.399       .  A
C165        H172   1.084       .  S
C166        S168   1.803       .  S
S167        H170   1.404       .  S
S168        H169   1.407       .  S
C173        C174   1.399       .  A
C173        C178   1.410       .  A
C174        C175   1.399       .  A
C174        H183   1.084       .  S
C175        C176   1.420       .  A
C175        S179   1.801       .  S
C176        C177   1.408       .  A
C177        C178   1.399       .  A
C177        H184   1.083       .  S
C178        S180   1.806       .  S
S179        H182   1.408       .  S
S180        H181   1.401       .  S
C185        C190   1.414       .  A
C185        C794   1.404       .  A
C186        C187   1.399       .  A
C186        C793   1.404   1_545  A
C186        H195   1.083       .  S
C187        C796   1.413       .  A
C187        S191   1.803       .  S
C188        C189   1.403       .  A
C188        C795   1.413       .  A
C189        C190   1.400       .  A
C189        H196   1.083       .  S
C190        S192   1.803       .  S
S191        H194   1.407       .  S
S192        H193   1.407       .  S
C197        C198   1.406       .  A
C197        C202   1.418       .  A
C198        C199   1.398       .  A
C198        H207   1.084       .  S
C199        C200   1.409       .  A
C199        S811   1.801       .  S
C200        C201   1.400       .  A
C201        C202   1.399       .  A
C201        H816   1.084       .  S
C202        S812   1.802       .  S
S203        C807   1.801       .  S
S203        H814   1.405       .  S
S204        C810   1.802       .  S
S204        H813   1.408       .  S
H205        S812   1.408       .  S
H206        S811   1.405       .  S
H208        C809   1.084       .  S
C209        C210   1.402       .  A
C209        C214   1.413       .  A
C210        C211   1.399       .  A
C210        H219   1.084       .  S
C211        C212   1.415       .  A
C211        S215   1.804       .  S
C212        C213   1.402       .  A
C213        C214   1.397       .  A
C213        H220   1.084       .  S
C214        S216   1.804       .  S
S215        H218   1.404       .  S
S216        H217   1.407       .  S
C221        C222   1.403       .  A
C221        C226   1.412       .  A
C222        C223   1.400       .  A
C222        H231   1.084       .  S
C223        C224   1.413       .  A
C223        S227   1.803       .  S
C224        C225   1.402       .  A
C225        C226   1.397       .  A
C225        H232   1.084       .  S
C226        S228   1.804       .  S
S227        H230   1.407       .  S
S228        H229   1.407       .  S
C233        C234   1.405       .  A
C233       C1454   1.415       .  A
C234        C235   1.400       .  A
C234        H243   1.084       .  S
C235        C236   1.412       .  A
C235        S239   1.803       .  S
C236       C1453   1.401       .  A
C237        C238   1.398       .  A
C237       C1452   1.401       .  A
C237        H244   1.084       .  S
C238       C1449   1.415       .  A
C238        S240   1.802       .  S
S239        H242   1.406       .  S
S240        H241   1.403       .  S
C245        C246   1.404       .  A
C245       C1466   1.415       .  A
C246        C247   1.399       .  A
C246        H255   1.084       .  S
C247        C248   1.412       .  A
C247        S251   1.803       .  S
C248       C1465   1.403       .  A
C249        C250   1.399       .  A
C249       C1464   1.403   1_455  A
C249        H256   1.084       .  S
C250       C1461   1.415   1_455  A
C250        S252   1.803       .  S
S251        H254   1.406       .  S
S252        H253   1.405       .  S
C257       C1474   1.404   1_565  A
C257        C870   1.414   1_655  A
C258        C259   1.400       .  A
C258       C1473   1.404   1_545  A
C258        H267   1.084       .  S
C259       C1476   1.414       .  A
C259        S263   1.803       .  S
C260        C620   1.475       .  S
C260       C1475   1.414       .  A
C260        C869   1.403   1_645  A
C261        C262   1.398       .  A
C261        C868   1.403   1_455  A
C261        H268   1.083       .  S
C262        C865   1.414   1_455  A
C262        S264   1.805       .  S
S263        H266   1.403       .  S
S264        H265   1.403       .  S
C269        C619   1.483   1_545  S
C269        C274   1.418       .  A
C269       C2094   1.407   1_445  A
C270        C271   1.398       .  A
C270       C2093   1.407       .  A
C270        H279   1.083       .  S
C271       C2096   1.410       .  A
C271        S275   1.804       .  S
C272        C273   1.401   1_665  A
C272       C2095   1.410       .  A
C273        C274   1.400       .  A
C273        H280   1.084       .  S
C274        S276   1.803       .  S
S275        H278   1.405       .  S
S276        H277   1.404       .  S
C281        C282   1.402       .  A
C281       C1502   1.412       .  A
C282        C283   1.399       .  A
C282        H291   1.084       .  S
C283        C284   1.412       .  A
C283        S287   1.803       .  S
C284       C1501   1.402       .  A
C285        C286   1.400       .  A
C285       C1500   1.402       .  A
C285        H292   1.084       .  S
C286       C1497   1.412       .  A
C286        S288   1.801       .  S
S287        H290   1.406       .  S
S288        H289   1.406       .  S
C293        C294   1.402       .  A
C293       C1514   1.412       .  A
C294        C295   1.399       .  A
C294        H303   1.084       .  S
C295        C296   1.411       .  A
C295        S299   1.802       .  S
C296       C1513   1.401       .  A
C297        C298   1.400       .  A
C297       C1512   1.401       .  A
C297        H304   1.084       .  S
C298       C1509   1.412       .  A
C298        S300   1.804       .  S
S299        H302   1.404       .  S
S300        H301   1.403       .  S
O305        V921   1.898   1_545  S
O305       C2139   1.265   1_545  A
O306        V313   1.902       .  S
O306       C1532   1.265       .  A
O307        V313   1.900       .  S
O307        C317   1.264       .  A
O308        V921   1.899   1_545  S
O308        C318   1.263       .  A
O309        V922   1.904       .  S
O309       C1534   1.264   1_455  A
O310        V314   1.901       .  S
O310       C1533   1.264       .  A
O311        V922   1.896       .  S
O311        C924   1.264   1_455  A
O312        V314   1.900       .  S
O312        C315   1.264       .  A
V313        O913   1.898       .  S
V313        O916   1.899       .  S
V313       V1530   2.088       .  T
V314        O917   1.904       .  S
V314        O919   1.896       .  S
V314       V1529   2.088   1_455  T
C315       O2129   1.265   1_455  A
C315       C1181   1.483       .  S
C316       O1522   1.265       .  A
C316        O919   1.264   1_655  A
C316       C1172   1.475       .  S
C317       O1526   1.264       .  A
C317        C585   1.473       .  S
C318       O1525   1.264       .  A
C318        C597   1.469       .  S
O319        V327   1.901       .  S
O319       C1545   1.265       .  A
O320        V327   1.897       .  S
O320       C1546   1.263       .  A
O321        V327   1.903       .  S
O321       C1547   1.264       .  A
O322        V327   1.900       .  S
O322       C1548   1.263   1_455  A
O323        V328   1.902       .  S
O323        C332   1.264       .  A
O324        V328   1.897       .  S
O324        C331   1.263       .  A
O325        V328   1.902       .  S
O325        C330   1.265       .  A
O326        V328   1.898       .  S
O326        C329   1.264       .  A
V327       V1544   2.088   1_455  T
V328       V1543   2.088       .  T
C329       O1535   1.265       .  A
C329        C549   1.477       .  S
C330       O1536   1.263       .  A
C330        C540   1.473       .  S
C331       O1537   1.264       .  A
C331        C588   1.472       .  S
C332       O1538   1.263       .  A
C332        C600   1.469       .  S
O333        V341   1.898       .  S
O333        C343   1.265       .  A
O334        V341   1.899       .  S
O334        C344   1.264       .  A
O335        V341   1.895       .  S
O335        C345   1.263       .  A
O336        V949   1.899   1_545  S
O336        C346   1.264       .  A
O337        V950   1.896       .  S
O337        C346   1.264       .  A
O338        V342   1.900       .  S
O338        C345   1.264       .  A
O339        V342   1.899       .  S
O339        C344   1.264       .  A
O340        V342   1.897       .  S
O340        C343   1.264       .  A
V341        O944   1.899       .  S
V341        V342   2.086       .  T
V342        O945   1.896       .  S
C343        C501   1.482       .  S
C344        C492   1.475       .  S
C345        C513   1.473       .  S
C346        C525   1.471       .  S
O347        V355   1.900       .  S
O347        C357   1.264       .  A
O348        V355   1.899       .  S
O348        C358   1.265       .  A
O349        V355   1.896       .  S
O349        C359   1.263       .  A
O350        V355   1.895       .  S
O350        C360   1.263       .  A
O351        V356   1.900       .  S
O351        C360   1.265       .  A
O352        V356   1.899       .  S
O352        C359   1.265       .  A
O353        V356   1.895       .  S
O353        C358   1.263       .  A
O354        V356   1.897       .  S
O354        C357   1.263       .  A
V355        V356   2.087       .  T
C357        C477   1.467       .  S
C358        C468   1.475       .  S
C359        C516   1.474       .  S
C360        C528   1.471       .  S
O362       V1585   1.898       .  S
O362        C372   1.263       .  A
O363        V369   1.899       .  S
O363        C373   1.265   1_545  A
O364       V1281   1.899   1_556  S
O364       C1590   1.264   1_545  A
O365       V1282   1.900   1_556  S
O365        C982   1.264       .  A
O366        V370   1.897       .  S
O366       C2197   1.263       .  A
O367        C676   1.264       .  A
O368       V1586   1.900   1_455  S
O368        C979   1.265       .  A
V369       O1578   1.898       .  S
V369       O1276   1.899   1_655  S
V369       V2194   2.085   1_545  T
V370       O1277   1.900       .  S
V370       O1584   1.900       .  S
V370       V2193   2.085       .  T
C371        O976   1.265       .  A
C371       C1064   1.476       .  S
C372        O671   1.264   1_545  A
C372       C1052   1.472       .  S
C373       O2190   1.263   1_655  A
C373        C561   1.474       .  S
C374       O1580   1.264   1_665  A
C374        O973   1.264       .  A
C374        C576   1.470       .  S
O375       V1599   1.899   1_456  S
O375       C1601   1.264   1_455  A
O376        C386   1.265       .  A
O377        V383   1.902   1_556  S
O378       V1295   1.901   1_455  S
O378        C388   1.264       .  A
O379       V1296   1.902   1_456  S
O380        V384   1.898       .  S
O380        C387   1.264       .  A
O381       V1600   1.899   1_455  S
O381       C1602   1.265       .  A
O382        C385   1.264       .  A
V383       O1591   1.899   1_554  S
V383       O1290   1.901       .  S
V384       O1291   1.902       .  S
V384       O1597   1.899       .  S
C385       O1591   1.264       .  A
C385        C552   1.474       .  S
C386       O1597   1.265       .  A
C386        C537   1.478       .  S
C387        C417   1.472       .  S
C388        C429   1.475       .  S
O389        V397   1.896       .  S
O389       C1007   1.263   1_545  A
O390       C1008   1.264   1_545  A
O391        V397   1.899       .  S
O391        C705   1.264       .  A
O392       C1010   1.265   1_545  A
O394        V398   1.896       .  S
O394        C401   1.264       .  A
O395        V398   1.900       .  S
O395        C400   1.265       .  A
O396        C399   1.264       .  A
V397        V702   2.085   1_545  T
V398        V701   2.085       .  T
C399        O997   1.263       .  A
C399        C504   1.470       .  S
C400        O998   1.264       .  A
C400        C489   1.477       .  S
C401        O695   1.264       .  A
C401        C441   1.472       .  S
C402       O1000   1.265       .  A
C402        C453   1.476       .  S
O403        V411   1.897       .  S
O403        C413   1.264       .  A
O404        C414   1.264       .  A
O405        V411   1.900       .  S
O405        C415   1.264       .  A
O407        C416   1.263       .  A
O408        V412   1.900   1_554  S
O409        V412   1.898       .  S
O409        C414   1.266       .  A
O410        C413   1.264       .  A
C413        C465   1.474       .  S
C414        C480   1.489       .  S
C415        C432   1.473       .  S
C416        C420   1.472       .  S
C417        C422   1.412       .  A
C418        C419   1.400       .  A
C418        H427   1.084       .  S
C419        S423   1.804       .  S
C420        C421   1.402       .  A
C421        C422   1.400       .  A
C421        H428   1.084       .  S
C422        S424   1.803       .  S
S423        H426   1.406       .  S
S424        H425   1.406       .  S
C429        C430   1.402       .  A
C430        C431   1.399       .  A
C430        H439   1.083       .  S
C431        C432   1.412       .  A
C431        S435   1.804       .  S
C433        C434   1.400       .  A
C433        H440   1.085       .  S
C434        S436   1.803       .  S
S435        H438   1.406       .  S
S436        H437   1.406       .  S
C441        C442   1.402       .  A
C441        C750   1.413       .  A
C442        C443   1.397       .  A
C442        H451   1.084       .  S
C443        C444   1.412       .  A
C443        S447   1.804       .  S
C444        C980   1.472       .  S
C444        C749   1.403       .  A
C445        C748   1.403   1_556  A
C445        C446   1.399       .  A
C445        H452   1.084       .  S
C446        C745   1.413       .  A
C446        S448   1.803       .  S
S447        H450   1.407       .  S
S448        H449   1.406       .  S
C453       C1062   1.403       .  A
C454       C1061   1.403   1_545  A
C454        C455   1.398       .  A
C454        H463   1.084       .  S
C455       C1064   1.415   1_545  A
C455        S459   1.805       .  S
C456        C979   1.476       .  S
C456       C1063   1.415       .  A
C457        C458   1.399       .  A
C457        H464   1.084       .  S
C458        S460   1.799       .  S
S459        H462   1.404       .  S
S460        H461   1.407       .  S
C465        C466   1.402       .  A
C465        C470   1.413       .  A
C466        C467   1.398       .  A
C466        H475   1.084       .  S
C467        C468   1.415       .  A
C467        S471   1.804       .  S
C468        C469   1.403       .  A
C469        C470   1.399       .  A
C469        H476   1.084       .  S
C470        S472   1.803       .  S
S471        H474   1.404       .  S
S472        H473   1.407       .  S
C477        C478   1.399       .  A
C477        C482   1.410       .  A
C478        C479   1.399       .  A
C478        H487   1.084       .  S
C479        C480   1.420       .  A
C479        S483   1.801       .  S
C480        C481   1.408       .  A
C481        C482   1.399       .  A
C481        H488   1.083       .  S
C482        S484   1.806       .  S
S483        H486   1.408       .  S
S484        H485   1.401       .  S
C489       C1098   1.404       .  A
C489        C494   1.414       .  A
C490       C1097   1.404   1_545  A
C490        C491   1.399       .  A
C490        H499   1.083       .  S
C491       C1100   1.413       .  A
C491        S495   1.803       .  S
C492       C1099   1.413       .  A
C492        C493   1.403       .  A
C493        C494   1.400       .  A
C493        H500   1.083       .  S
C494        S496   1.803       .  S
S495        H498   1.407       .  S
S496        H497   1.407       .  S
C501        C502   1.406       .  A
C501        C506   1.418       .  A
C502        C503   1.398       .  A
C502        H511   1.084       .  S
C503        C504   1.409       .  A
C503       S1115   1.801       .  S
C504        C505   1.400       .  A
C505        C506   1.399       .  A
C505       H1120   1.084       .  S
C506       S1116   1.802       .  S
S507       C1111   1.801       .  S
S507       H1118   1.405       .  S
S508       C1114   1.802       .  S
S508       H1117   1.408       .  S
H509       S1116   1.408       .  S
H510       S1115   1.405       .  S
H512       C1113   1.084       .  S
C513        C514   1.402       .  A
C513        C518   1.413       .  A
C514        C515   1.399       .  A
C514        H523   1.084       .  S
C515        C516   1.415       .  A
C515        S519   1.804       .  S
C516        C517   1.402       .  A
C517        C518   1.397       .  A
C517        H524   1.084       .  S
C518        S520   1.804       .  S
S519        H522   1.404       .  S
S520        H521   1.407       .  S
C525        C526   1.403       .  A
C525        C530   1.412       .  A
C526        C527   1.400       .  A
C526        H535   1.084       .  S
C527        C528   1.413       .  A
C527        S531   1.803       .  S
C528        C529   1.402       .  A
C529        C530   1.397       .  A
C529        H536   1.084       .  S
C530        S532   1.804       .  S
S531        H534   1.407       .  S
S532        H533   1.407       .  S
C537        C538   1.405       .  A
C537       C1758   1.415       .  A
C538        C539   1.400       .  A
C538        H547   1.084       .  S
C539        C540   1.412       .  A
C539        S543   1.803       .  S
C540       C1757   1.401       .  A
C541       C1756   1.401       .  A
C541        C542   1.398       .  A
C541        H548   1.084       .  S
C542       C1753   1.415       .  A
C542        S544   1.802       .  S
S543        H546   1.406       .  S
S544        H545   1.403       .  S
C549        C550   1.404       .  A
C549       C1770   1.415       .  A
C550        C551   1.399       .  A
C550        H559   1.084       .  S
C551        C552   1.412       .  A
C551        S555   1.803       .  S
C552       C1769   1.403       .  A
C553       C1768   1.403   1_455  A
C553        C554   1.399       .  A
C553        H560   1.084       .  S
C554       C1765   1.415   1_455  A
C554        S556   1.803       .  S
S555        H558   1.406       .  S
S556        H557   1.405       .  S
C561       C1778   1.404   1_565  A
C561       C1174   1.414   1_655  A
C562       C1777   1.404   1_545  A
C562        C563   1.400       .  A
C562        H571   1.084       .  S
C563       C1780   1.414       .  A
C563        S567   1.803       .  S
C564        C924   1.475       .  S
C564       C1779   1.414       .  A
C564       C1173   1.403   1_645  A
C565       C1172   1.403   1_455  A
C565        C566   1.398       .  A
C565        H572   1.083       .  S
C566       C1169   1.414   1_455  A
C566        S568   1.805       .  S
S567        H570   1.403       .  S
S568        H569   1.403       .  S
C573        C923   1.483   1_545  S
C573       C2398   1.407   1_445  A
C573        C578   1.418       .  A
C574       C2397   1.407       .  A
C574        C575   1.398       .  A
C574        H583   1.083       .  S
C575       C2400   1.410       .  A
C575        S579   1.804       .  S
C576       C2399   1.410       .  A
C576        C577   1.401   1_665  A
C577        C578   1.400       .  A
C577        H584   1.084       .  S
C578        S580   1.803       .  S
S579        H582   1.405       .  S
S580        H581   1.404       .  S
C585        C586   1.402       .  A
C585       C1806   1.412       .  A
C586        C587   1.399       .  A
C586        H595   1.084       .  S
C587        C588   1.412       .  A
C587        S591   1.803       .  S
C588       C1805   1.402       .  A
C589       C1804   1.402       .  A
C589        C590   1.400       .  A
C589        H596   1.084       .  S
C590       C1801   1.412       .  A
C590        S592   1.801       .  S
S591        H594   1.406       .  S
S592        H593   1.406       .  S
C597        C598   1.402       .  A
C597       C1818   1.412       .  A
C598        C599   1.399       .  A
C598        H607   1.084       .  S
C599        C600   1.411       .  A
C599        S603   1.802       .  S
C600       C1817   1.401       .  A
C601       C1816   1.401       .  A
C601        C602   1.400       .  A
C601        H608   1.084       .  S
C602       C1813   1.412       .  A
C602        S604   1.804       .  S
S603        H606   1.404       .  S
S604        H605   1.403       .  S
O609       C1227   1.265       .  A
O610        V617   1.902       .  S
O610       C1836   1.265   1_565  A
O611        V617   1.900       .  S
O611        C621   1.264       .  A
O612        C622   1.263       .  A
O613       C1838   1.264   1_455  A
O614        V618   1.901   1_565  S
O614       C1837   1.264       .  A
O616        V618   1.900   1_565  S
O616        C619   1.264       .  A
V617       V1834   2.088   1_565  T
V618       V1833   2.088   1_445  T
C619       O1217   1.265   1_465  A
C620       O1826   1.265   1_545  A
C621       O1830   1.264       .  A
C621        C889   1.473       .  S
C622       O1829   1.264       .  A
C622        C901   1.469       .  S
O623        V631   1.901       .  S
O623       C1849   1.265       .  A
O624        V631   1.897       .  S
O624       C1850   1.263       .  A
O625        V631   1.903       .  S
O625       C1851   1.264       .  A
O626        V631   1.900       .  S
O626       C1852   1.263   1_455  A
O627        V632   1.902       .  S
O627        C636   1.264       .  A
O628        V632   1.897       .  S
O628        C635   1.263       .  A
O629        V632   1.902       .  S
O629        C634   1.265       .  A
O630        V632   1.898       .  S
O630        C633   1.264       .  A
V631       V1848   2.088   1_455  T
V632       V1847   2.088       .  T
C633       O1839   1.265       .  A
C633        C853   1.477       .  S
C634       O1840   1.263       .  A
C634        C844   1.473       .  S
C635       O1841   1.264       .  A
C635        C892   1.472       .  S
C636       O1842   1.263       .  A
C636        C904   1.469       .  S
O637        V645   1.898   1_545  S
O637        C647   1.265   1_545  A
O638        V645   1.899       .  S
O638        C648   1.264   1_565  A
O639        V645   1.895       .  S
O639        C649   1.263       .  A
O640        C650   1.264       .  A
O641        C650   1.264       .  A
O642        V646   1.900   1_565  S
O642        C649   1.264       .  A
O643        V646   1.899       .  S
O643        C648   1.264       .  A
O644        V646   1.897   1_565  S
O644        C647   1.264       .  A
V645        V646   2.086   1_565  T
C647        C805   1.482       .  S
C648        C796   1.475       .  S
C649        C817   1.473       .  S
C650        C829   1.471       .  S
O651        V659   1.900       .  S
O651        C661   1.264       .  A
O652        V659   1.899       .  S
O652        C662   1.265       .  A
O653        V659   1.896       .  S
O653        C663   1.263       .  A
O654        V659   1.895       .  S
O654        C664   1.263       .  A
O655        V660   1.900       .  S
O655        C664   1.265       .  A
O656        V660   1.899       .  S
O656        C663   1.265       .  A
O657        V660   1.895       .  S
O657        C662   1.263       .  A
O658        V660   1.897       .  S
O658        C661   1.263       .  A
V659        V660   2.087       .  T
C661        C781   1.467       .  S
C662        C772   1.475       .  S
C663        C820   1.474       .  S
C664        C832   1.471       .  S
O665        V977   1.895   1_455  S
O665        C979   1.263       .  A
O666       V1889   1.898   1_556  S
O666        C676   1.263   1_556  A
O667        V673   1.899       .  S
O667        C677   1.265       .  A
O668       V2193   1.899       .  S
O668       C1894   1.264       .  A
O669       V2194   1.900       .  S
O670        V674   1.897       .  S
O670       C1285   1.263       .  A
O671        V978   1.897       .  S
O672       V1890   1.900   1_456  S
V673        O969   1.895   1_655  S
V673       O1882   1.898   1_554  S
V673       O2188   1.899   1_654  S
V673       V1282   2.085       .  T
V674       O2189   1.900   1_554  S
V674        O975   1.897       .  S
V674       O1888   1.900   1_554  S
V674       V1281   2.085   1_565  T
C675        O969   1.263       .  A
C677       O1278   1.263   1_655  A
C677        C865   1.474       .  S
C678       O1884   1.264   1_655  A
C678        C880   1.470       .  S
O679       V1903   1.899   1_455  S
O679       C1905   1.264   1_455  A
O680        V991   1.900       .  S
O680        C690   1.265       .  A
O681        V687   1.902       .  S
O681        C995   1.264       .  A
O682       V2207   1.901   1_455  S
O682        C692   1.264   1_554  A
O683       V2208   1.902   1_455  S
O683        C996   1.265       .  A
O684        V688   1.898       .  S
O684        C691   1.264       .  A
O685       V1904   1.899   1_455  S
O685       C1906   1.265       .  A
O686        V992   1.899       .  S
O686        C689   1.264       .  A
V687       O1895   1.899       .  S
V687        O984   1.900       .  S
V687       O2202   1.901       .  S
V687        V992   2.085       .  T
V688       O2203   1.902   1_554  S
V688       O1901   1.899       .  S
V688        O990   1.899   1_554  S
V688        V991   2.085       .  T
C689       O1895   1.264       .  A
C689        C856   1.474       .  S
C690       O1901   1.265       .  A
C690        C841   1.478       .  S
C691        O985   1.264   1_554  A
C691        C721   1.472       .  S
C692        O987   1.265       .  A
C692        C733   1.475       .  S
O693        V701   1.896       .  S
O694       V1005   1.898   1_554  S
O695        V701   1.899       .  S
O696       V1005   1.898   1_554  S
O697       V1006   1.897       .  S
O697       C1010   1.263       .  A
O698        V702   1.896   1_554  S
O698        C705   1.264   1_564  A
O699        V702   1.900   1_554  S
O699        C704   1.265       .  A
O700       V1006   1.900       .  S
O700        C703   1.264       .  A
V701        O998   1.898       .  S
V701       O1000   1.898       .  S
V702       O1001   1.897       .  S
V702       O1004   1.900       .  S
C703        C808   1.470       .  S
C704        C793   1.477       .  S
C705        C745   1.472       .  S
C706       O1001   1.263       .  A
C706        C757   1.476       .  S
O707        V715   1.897   1_554  S
O707        C717   1.264       .  A
O708       V1019   1.898       .  S
O708        C718   1.264       .  A
O709        V715   1.900       .  S
O709        C719   1.264       .  A
O710       V1019   1.902       .  S
O710       C1024   1.264       .  A
O711       V1020   1.898       .  S
O711        C720   1.263       .  A
O712        V716   1.900       .  S
O712       C1023   1.264       .  A
O713        V716   1.898       .  S
O713        C718   1.266       .  A
O714       V1020   1.898   1_554  S
O714        C717   1.264       .  A
V715       O1012   1.898       .  S
V715       O1014   1.902   1_556  S
V715       V1020   2.085       .  T
V716       O1015   1.898       .  S
V716       O1018   1.898       .  S
V716       V1019   2.085       .  T
C717        C769   1.474       .  S
C718        C784   1.489       .  S
C719       O1016   1.264   1_556  A
C719        C736   1.473   1_556  S
C720       O1014   1.264   1_556  A
C720        C724   1.472       .  S
C721       C1026   1.402   1_554  A
C721        C726   1.412       .  A
C722       C1025   1.402       .  A
C722        C723   1.400       .  A
C722        H731   1.084       .  S
C723       C1028   1.412       .  A
C723        S727   1.804       .  S
C724       C1027   1.412       .  A
C724        C725   1.402   1_556  A
C725        C726   1.400       .  A
C725        H732   1.084       .  S
C726        S728   1.803       .  S
S727        H730   1.406       .  S
S728        H729   1.406       .  S
C733        C734   1.402   1_556  A
C733       C1042   1.413       .  A
C734        C735   1.399       .  A
C734        H743   1.083       .  S
C735        C736   1.412       .  A
C735        S739   1.804       .  S
C736       C1041   1.403   1_554  A
C737       C1040   1.403       .  A
C737        C738   1.400       .  A
C737        H744   1.085       .  S
C738       C1037   1.413       .  A
C738        S740   1.803       .  S
S739        H742   1.406       .  S
S740        H741   1.406       .  S
C745        C746   1.402   1_546  A
C746        C747   1.397       .  A
C746        H755   1.084       .  S
C747        C748   1.412   1_565  A
C747        S751   1.804       .  S
C749        C750   1.399       .  A
C749        H756   1.084       .  S
C750        S752   1.803       .  S
S751        H754   1.407       .  S
S752        H753   1.406       .  S
C757       C1066   1.413       .  A
C758        C759   1.398       .  A
C758        H767   1.084       .  S
C759        S763   1.805       .  S
C760       C1065   1.404   1_554  A
C761       C1064   1.404       .  A
C761        C762   1.399       .  A
C761        H768   1.084       .  S
C762       C1061   1.413       .  A
C762        S764   1.799       .  S
S763        H766   1.404       .  S
S764        H765   1.407       .  S
C769        C770   1.402       .  A
C769        C774   1.413       .  A
C770        C771   1.398       .  A
C770        H779   1.084       .  S
C771        C772   1.415       .  A
C771        S775   1.804       .  S
C772        C773   1.403       .  A
C773        C774   1.399       .  A
C773        H780   1.084       .  S
C774        S776   1.803       .  S
S775        H778   1.404       .  S
S776        H777   1.407       .  S
C781        C782   1.399       .  A
C781        C786   1.410       .  A
C782        C783   1.399       .  A
C782        H791   1.084       .  S
C783        C784   1.420       .  A
C783        S787   1.801       .  S
C784        C785   1.408       .  A
C785        C786   1.399       .  A
C785        H792   1.083       .  S
C786        S788   1.806       .  S
S787        H790   1.408       .  S
S788        H789   1.401       .  S
C793        C798   1.414       .  A
C794        C795   1.399       .  A
C794        H803   1.083       .  S
C795        S799   1.803       .  S
C796        C797   1.403   1_545  A
C797        C798   1.400       .  A
C797        H804   1.083       .  S
C798        S800   1.803       .  S
S799        H802   1.407       .  S
S800        H801   1.407       .  S
C805        C806   1.406   1_565  A
C805        C810   1.418       .  A
C806        C807   1.398       .  A
C806        H815   1.084       .  S
C807        C808   1.409   1_545  A
C808        C809   1.400       .  A
C809        C810   1.399       .  A
C817        C818   1.402       .  A
C817        C822   1.413       .  A
C818        C819   1.399       .  A
C818        H827   1.084       .  S
C819        C820   1.415       .  A
C819        S823   1.804       .  S
C820        C821   1.402       .  A
C821        C822   1.397       .  A
C821        H828   1.084       .  S
C822        S824   1.804       .  S
S823        H826   1.404       .  S
S824        H825   1.407       .  S
C829        C830   1.403       .  A
C829        C834   1.412       .  A
C830        C831   1.400       .  A
C830        H839   1.084       .  S
C831        C832   1.413       .  A
C831        S835   1.803       .  S
C832        C833   1.402       .  A
C833        C834   1.397       .  A
C833        H840   1.084       .  S
C834        S836   1.804       .  S
S835        H838   1.407       .  S
S836        H837   1.407       .  S
C841        C842   1.405       .  A
C841       C2062   1.415       .  A
C842        C843   1.400       .  A
C842        H851   1.084       .  S
C843        C844   1.412       .  A
C843        S847   1.803       .  S
C844       C2061   1.401       .  A
C845       C2060   1.401       .  A
C845        C846   1.398       .  A
C845        H852   1.084       .  S
C846       C2057   1.415       .  A
C846        S848   1.802       .  S
S847        H850   1.406       .  S
S848        H849   1.403       .  S
C853        C854   1.404       .  A
C853       C2074   1.415       .  A
C854        C855   1.399       .  A
C854        H863   1.084       .  S
C855        C856   1.412       .  A
C855        S859   1.803       .  S
C856       C2073   1.403       .  A
C857       C2072   1.403   1_455  A
C857        C858   1.399       .  A
C857        H864   1.084       .  S
C858       C2069   1.415   1_455  A
C858        S860   1.803       .  S
S859        H862   1.406       .  S
S860        H861   1.405       .  S
C865       C2082   1.404       .  A
C866       C2081   1.404       .  A
C866        C867   1.400       .  A
C866        H875   1.084       .  S
C867       C2084   1.414       .  A
C867        S871   1.803       .  S
C868       C2083   1.414       .  A
C869        C870   1.398       .  A
C869        H876   1.083       .  S
C870        S872   1.805       .  S
S871        H874   1.403       .  S
S872        H873   1.403       .  S
C877       C1486   1.407   1_455  A
C877        C882   1.418       .  A
C878       C1485   1.407   1_565  A
C878        C879   1.398       .  A
C878        H887   1.083       .  S
C879       C1488   1.410       .  A
C879        S883   1.804       .  S
C880       C1487   1.410       .  A
C880        C881   1.401   1_655  A
C881        C882   1.400       .  A
C881        H888   1.084       .  S
C882        S884   1.803       .  S
S883        H886   1.405       .  S
S884        H885   1.404       .  S
C889        C890   1.402       .  A
C889       C2110   1.412       .  A
C890        C891   1.399       .  A
C890        H899   1.084       .  S
C891        C892   1.412       .  A
C891        S895   1.803       .  S
C892       C2109   1.402       .  A
C893       C2108   1.402       .  A
C893        C894   1.400       .  A
C893        H900   1.084       .  S
C894       C2105   1.412       .  A
C894        S896   1.801       .  S
S895        H898   1.406       .  S
S896        H897   1.406       .  S
C901        C902   1.402       .  A
C901       C2122   1.412       .  A
C902        C903   1.399       .  A
C902        H911   1.084       .  S
C903        C904   1.411       .  A
C903        S907   1.802       .  S
C904       C2121   1.401       .  A
C905       C2120   1.401       .  A
C905        C906   1.400       .  A
C905        H912   1.084       .  S
C906       C2117   1.412       .  A
C906        S908   1.804       .  S
S907        H910   1.404       .  S
S908        H909   1.403       .  S
O913       C1531   1.265       .  A
O914        V921   1.902       .  S
O914       C2140   1.265   1_565  A
O915        V921   1.900       .  S
O915        C925   1.264       .  A
O916        C926   1.263       .  A
O917       C2142   1.264   1_455  A
O918        V922   1.901   1_565  S
O918       C2141   1.264       .  A
O920        V922   1.900   1_565  S
O920        C923   1.264       .  A
V921       V2138   2.088   1_565  T
V922       V2137   2.088   1_445  T
C923       O1521   1.265   1_465  A
C924       O2130   1.265   1_545  A
C925       O2134   1.264       .  A
C925       C1193   1.473       .  S
C926       O2133   1.264       .  A
C926       C1205   1.469       .  S
O927        V935   1.901       .  S
O927       C2153   1.265       .  A
O928        V935   1.897       .  S
O928       C2154   1.263       .  A
O929        V935   1.903       .  S
O929       C2155   1.264       .  A
O930        V935   1.900       .  S
O930       C2156   1.263   1_455  A
O931        V936   1.902       .  S
O931        C940   1.264       .  A
O932        V936   1.897       .  S
O932        C939   1.263       .  A
O933        V936   1.902       .  S
O933        C938   1.265       .  A
O934        V936   1.898       .  S
O934        C937   1.264       .  A
V935       V2152   2.088   1_455  T
V936       V2151   2.088       .  T
C937       O2143   1.265       .  A
C937       C1157   1.477       .  S
C938       O2144   1.263       .  A
C938       C1148   1.473       .  S
C939       O2145   1.264       .  A
C939       C1196   1.472       .  S
C940       O2146   1.263       .  A
C940       C1208   1.469       .  S
O941        V949   1.898   1_545  S
O941        C951   1.265   1_545  A
O942        V949   1.899       .  S
O942        C952   1.264   1_565  A
O943        V949   1.895       .  S
O943        C953   1.263       .  A
O944        C954   1.264       .  A
O945        C954   1.264       .  A
O946        V950   1.900   1_565  S
O946        C953   1.264       .  A
O947        V950   1.899       .  S
O947        C952   1.264       .  A
O948        V950   1.897   1_565  S
O948        C951   1.264       .  A
V949        V950   2.086   1_565  T
C951       C1109   1.482       .  S
C952       C1100   1.475       .  S
C953       C1121   1.473       .  S
C954       C1133   1.471       .  S
O955        V963   1.900       .  S
O955        C965   1.264       .  A
O956        V963   1.899       .  S
O956        C966   1.265       .  A
O957        V963   1.896       .  S
O957        C967   1.263       .  A
O958        V963   1.895       .  S
O958        C968   1.263       .  A
O959        V964   1.900       .  S
O959        C968   1.265       .  A
O960        V964   1.899       .  S
O960        C967   1.265       .  A
O961        V964   1.895       .  S
O961        C966   1.263       .  A
O962        V964   1.897       .  S
O962        C965   1.263       .  A
V963        V964   2.087       .  T
C965       C1085   1.467       .  S
C966       C1076   1.475       .  S
C967       C1124   1.474       .  S
C968       C1136   1.471       .  S
O970       V2193   1.898       .  S
O970        C980   1.263       .  A
O971        V977   1.899       .  S
O971        C981   1.265       .  A
O972       V1889   1.899   1_556  S
O972       C2198   1.264       .  A
O973       V1890   1.900   1_556  S
O974        V978   1.897       .  S
O974       C1589   1.263       .  A
O976       V2194   1.900   1_455  S
V977       O2186   1.898       .  S
V977       O1884   1.899   1_655  S
V977       V1586   2.085       .  T
V978       O1885   1.900       .  S
V978       O2192   1.900       .  S
V978       V1585   2.085   1_565  T
C981       O1582   1.263   1_655  A
C981       C1169   1.474       .  S
C982       O2188   1.264   1_655  A
C982       C1184   1.470       .  S
O983       V2207   1.899   1_456  S
O983       C2209   1.264   1_455  A
O984        C994   1.265       .  A
O985        V991   1.902   1_556  S
O986       V1903   1.901   1_455  S
O986        C996   1.264       .  A
O987       V1904   1.902   1_456  S
O988        V992   1.898       .  S
O988        C995   1.264       .  A
O989       V2208   1.899   1_455  S
O989       C2210   1.265       .  A
O990        C993   1.264       .  A
V991       O2199   1.899   1_554  S
V991       O1898   1.901       .  S
V992       O1899   1.902       .  S
V992       O2205   1.899       .  S
C993       O2199   1.264       .  A
C993       C1160   1.474       .  S
C994       O2205   1.265       .  A
C994       C1145   1.478       .  S
C995       C1025   1.472       .  S
C996       C1037   1.475       .  S
O997       V1005   1.896       .  S
O999       V1005   1.899       .  S
O1002      V1006   1.896       .  S
O1002      C1009   1.264   1_565  A
O1003      V1006   1.900       .  S
O1003      C1008   1.265       .  A
O1004      C1007   1.264       .  A
C1007      C1112   1.470       .  S
C1008      C1097   1.477       .  S
C1009      C1049   1.472       .  S
C1010      C1061   1.476       .  S
O1011      V1019   1.897       .  S
O1011      C1021   1.264       .  A
O1012      C1022   1.264       .  A
O1013      V1019   1.900       .  S
O1013      C1023   1.264       .  A
O1015      C1024   1.263       .  A
O1016      V1020   1.900   1_554  S
O1017      V1020   1.898       .  S
O1017      C1022   1.266       .  A
O1018      C1021   1.264       .  A
C1021      C1073   1.474       .  S
C1022      C1088   1.489       .  S
C1023      C1040   1.473       .  S
C1024      C1028   1.472       .  S
C1025      C1030   1.412       .  A
C1026      C1027   1.400       .  A
C1026      H1035   1.084       .  S
C1027      S1031   1.804       .  S
C1028      C1029   1.402       .  A
C1029      C1030   1.400       .  A
C1029      H1036   1.084       .  S
C1030      S1032   1.803       .  S
S1031      H1034   1.406       .  S
S1032      H1033   1.406       .  S
C1037      C1038   1.402       .  A
C1038      C1039   1.399       .  A
C1038      H1047   1.083       .  S
C1039      C1040   1.412       .  A
C1039      S1043   1.804       .  S
C1041      C1042   1.400       .  A
C1041      H1048   1.085       .  S
C1042      S1044   1.803       .  S
S1043      H1046   1.406       .  S
S1044      H1045   1.406       .  S
C1049      C1050   1.402   1_545  A
C1050      C1051   1.397       .  A
C1050      H1059   1.084       .  S
C1051      C1052   1.412   1_565  A
C1051      S1055   1.804       .  S
C1053      C1054   1.399       .  A
C1053      H1060   1.084       .  S
C1054      S1056   1.803       .  S
S1055      H1058   1.407       .  S
S1056      H1057   1.406       .  S
C1062      C1063   1.398       .  A
C1062      H1071   1.084       .  S
C1063      S1067   1.805       .  S
C1065      C1066   1.399       .  A
C1065      H1072   1.084       .  S
C1066      S1068   1.799       .  S
S1067      H1070   1.404       .  S
S1068      H1069   1.407       .  S
C1073      C1074   1.402       .  A
C1073      C1078   1.413       .  A
C1074      C1075   1.398       .  A
C1074      H1083   1.084       .  S
C1075      C1076   1.415       .  A
C1075      S1079   1.804       .  S
C1076      C1077   1.403       .  A
C1077      C1078   1.399       .  A
C1077      H1084   1.084       .  S
C1078      S1080   1.803       .  S
S1079      H1082   1.404       .  S
S1080      H1081   1.407       .  S
C1085      C1086   1.399       .  A
C1085      C1090   1.410       .  A
C1086      C1087   1.399       .  A
C1086      H1095   1.084       .  S
C1087      C1088   1.420       .  A
C1087      S1091   1.801       .  S
C1088      C1089   1.408       .  A
C1089      C1090   1.399       .  A
C1089      H1096   1.083       .  S
C1090      S1092   1.806       .  S
S1091      H1094   1.408       .  S
S1092      H1093   1.401       .  S
C1097      C1102   1.414       .  A
C1098      C1099   1.399       .  A
C1098      H1107   1.083       .  S
C1099      S1103   1.803       .  S
C1100      C1101   1.403   1_545  A
C1101      C1102   1.400       .  A
C1101      H1108   1.083       .  S
C1102      S1104   1.803       .  S
S1103      H1106   1.407       .  S
S1104      H1105   1.407       .  S
C1109      C1110   1.406   1_565  A
C1109      C1114   1.418       .  A
C1110      C1111   1.398       .  A
C1110      H1119   1.084       .  S
C1111      C1112   1.409   1_545  A
C1112      C1113   1.400       .  A
C1113      C1114   1.399       .  A
C1121      C1122   1.402       .  A
C1121      C1126   1.413       .  A
C1122      C1123   1.399       .  A
C1122      H1131   1.084       .  S
C1123      C1124   1.415       .  A
C1123      S1127   1.804       .  S
C1124      C1125   1.402       .  A
C1125      C1126   1.397       .  A
C1125      H1132   1.084       .  S
C1126      S1128   1.804       .  S
S1127      H1130   1.404       .  S
S1128      H1129   1.407       .  S
C1133      C1134   1.403       .  A
C1133      C1138   1.412       .  A
C1134      C1135   1.400       .  A
C1134      H1143   1.084       .  S
C1135      C1136   1.413       .  A
C1135      S1139   1.803       .  S
C1136      C1137   1.402       .  A
C1137      C1138   1.397       .  A
C1137      H1144   1.084       .  S
C1138      S1140   1.804       .  S
S1139      H1142   1.407       .  S
S1140      H1141   1.407       .  S
C1145      C1146   1.405       .  A
C1145      C2366   1.415       .  A
C1146      C1147   1.400       .  A
C1146      H1155   1.084       .  S
C1147      C1148   1.412       .  A
C1147      S1151   1.803       .  S
C1148      C2365   1.401       .  A
C1149      C2364   1.401       .  A
C1149      C1150   1.398       .  A
C1149      H1156   1.084       .  S
C1150      C2361   1.415       .  A
C1150      S1152   1.802       .  S
S1151      H1154   1.406       .  S
S1152      H1153   1.403       .  S
C1157      C1158   1.404       .  A
C1157      C2378   1.415       .  A
C1158      C1159   1.399       .  A
C1158      H1167   1.084       .  S
C1159      C1160   1.412       .  A
C1159      S1163   1.803       .  S
C1160      C2377   1.403       .  A
C1161      C2376   1.403   1_455  A
C1161      C1162   1.399       .  A
C1161      H1168   1.084       .  S
C1162      C2373   1.415   1_455  A
C1162      S1164   1.803       .  S
S1163      H1166   1.406       .  S
S1164      H1165   1.405       .  S
C1169      C2386   1.404       .  A
C1170      C2385   1.404       .  A
C1170      C1171   1.400       .  A
C1170      H1179   1.084       .  S
C1171      C2388   1.414       .  A
C1171      S1175   1.803       .  S
C1172      C2387   1.414       .  A
C1173      C1174   1.398       .  A
C1173      H1180   1.083       .  S
C1174      S1176   1.805       .  S
S1175      H1178   1.403       .  S
S1176      H1177   1.403       .  S
C1181      C1790   1.407   1_455  A
C1181      C1186   1.418       .  A
C1182      C1789   1.407   1_565  A
C1182      C1183   1.398       .  A
C1182      H1191   1.083       .  S
C1183      C1792   1.410       .  A
C1183      S1187   1.804       .  S
C1184      C1791   1.410       .  A
C1184      C1185   1.401   1_655  A
C1185      C1186   1.400       .  A
C1185      H1192   1.084       .  S
C1186      S1188   1.803       .  S
S1187      H1190   1.405       .  S
S1188      H1189   1.404       .  S
C1193      C1194   1.402       .  A
C1193      C2414   1.412       .  A
C1194      C1195   1.399       .  A
C1194      H1203   1.084       .  S
C1195      C1196   1.412       .  A
C1195      S1199   1.803       .  S
C1196      C2413   1.402       .  A
C1197      C2412   1.402       .  A
C1197      C1198   1.400       .  A
C1197      H1204   1.084       .  S
C1198      C2409   1.412       .  A
C1198      S1200   1.801       .  S
S1199      H1202   1.406       .  S
S1200      H1201   1.406       .  S
C1205      C1206   1.402       .  A
C1205      C2426   1.412       .  A
C1206      C1207   1.399       .  A
C1206      H1215   1.084       .  S
C1207      C1208   1.411       .  A
C1207      S1211   1.802       .  S
C1208      C2425   1.401       .  A
C1209      C2424   1.401       .  A
C1209      C1210   1.400       .  A
C1209      H1216   1.084       .  S
C1210      C2421   1.412       .  A
C1210      S1212   1.804       .  S
S1211      H1214   1.404       .  S
S1212      H1213   1.403       .  S
O1217      V1833   1.898   1_545  S
O1218      V1225   1.902       .  S
O1219      V1225   1.900       .  S
O1219      C1229   1.264   1_655  A
O1220      V1833   1.899   1_545  S
O1220      C1230   1.263       .  A
O1221      V1834   1.904       .  S
O1222      V1226   1.901       .  S
O1223      V1834   1.896       .  S
O1223      C1836   1.264       .  A
O1224      V1226   1.900       .  S
O1224      C1227   1.264       .  A
V1225      O1825   1.898       .  S
V1225      O1828   1.899       .  S
V1226      O1829   1.904       .  S
V1226      O1831   1.896       .  S
C1227      C2093   1.483       .  S
C1228      O1831   1.264       .  A
C1228      C2084   1.475       .  S
C1229      C1497   1.473       .  S
C1230      C1509   1.469       .  S
O1231      V1239   1.901       .  S
O1232      V1239   1.897       .  S
O1233      V1239   1.903       .  S
O1234      V1239   1.900       .  S
O1235      V1240   1.902       .  S
O1235      C1244   1.264       .  A
O1236      V1240   1.897       .  S
O1236      C1243   1.263   1_655  A
O1237      V1240   1.902       .  S
O1237      C1242   1.265   1_655  A
O1238      V1240   1.898       .  S
O1238      C1241   1.264   1_655  A
C1241      C1461   1.477   1_455  S
C1242      C1452   1.473       .  S
C1243      C1500   1.472       .  S
C1244      C1512   1.469       .  S
O1245      V1253   1.898       .  S
O1245      C1255   1.265       .  A
O1246      V1253   1.899       .  S
O1246      C1256   1.264       .  A
O1247      V1253   1.895       .  S
O1247      C1257   1.263       .  A
O1248      V1861   1.899   1_545  S
O1248      C1258   1.264       .  A
O1249      V1862   1.896       .  S
O1249      C1258   1.264       .  A
O1250      V1254   1.900       .  S
O1250      C1257   1.264       .  A
O1251      V1254   1.899       .  S
O1251      C1256   1.264       .  A
O1252      V1254   1.897       .  S
O1252      C1255   1.264       .  A
V1253      O1856   1.899       .  S
V1253      V1254   2.086       .  T
V1254      O1857   1.896       .  S
C1255      C1413   1.482       .  S
C1256      C1404   1.475       .  S
C1257      C1425   1.473       .  S
C1258      C1437   1.471       .  S
O1259      V1267   1.900       .  S
O1259      C1269   1.264       .  A
O1260      V1267   1.899       .  S
O1260      C1270   1.265       .  A
O1261      V1267   1.896       .  S
O1261      C1271   1.263       .  A
O1262      V1267   1.895       .  S
O1262      C1272   1.263       .  A
O1263      V1268   1.900       .  S
O1263      C1272   1.265       .  A
O1264      V1268   1.899       .  S
O1264      C1271   1.265       .  A
O1265      V1268   1.895       .  S
O1265      C1270   1.263       .  A
O1266      V1268   1.897       .  S
O1266      C1269   1.263       .  A
V1267      V1268   2.087       .  T
C1269      C1389   1.467       .  S
C1270      C1380   1.475       .  S
C1271      C1428   1.474       .  S
C1272      C1440   1.471       .  S
O1273      V1585   1.895       .  S
O1273      C1587   1.263   1_545  A
O1274      C1284   1.263   1_556  A
O1275      V1281   1.899       .  S
O1275      C1285   1.265   1_545  A
O1277      C1894   1.264       .  A
O1278      V1282   1.897   1_455  S
O1279      V1586   1.897       .  S
O1279      C2196   1.264       .  A
O1280      C1891   1.265   1_556  A
V1281      O1577   1.895       .  S
V1282      O1583   1.897       .  S
C1283      O1577   1.263   1_565  A
C1283      O1888   1.265   1_554  A
C1283      C1976   1.476       .  S
C1284      O2191   1.264   1_545  A
C1284      C1964   1.472       .  S
C1285      C1473   1.474       .  S
C1286      O1885   1.264       .  A
C1286      C1488   1.470       .  S
O1288      V1599   1.900       .  S
O1288      C1298   1.265   1_655  A
O1289      V1295   1.902       .  S
O1289      C1603   1.264       .  A
O1290      C1300   1.264   1_554  A
O1291      C1604   1.265       .  A
O1292      V1296   1.898       .  S
O1292      C1299   1.264       .  A
O1294      V1600   1.899       .  S
O1294      C1297   1.264       .  A
V1295      O1592   1.900       .  S
V1295      V1600   2.085       .  T
V1296      O1598   1.899   1_554  S
V1296      V1599   2.085       .  T
C1297      C1464   1.474       .  S
C1298      C1449   1.478       .  S
C1299      O1593   1.264   1_554  A
C1299      C1329   1.472       .  S
C1300      O1595   1.265       .  A
C1300      C1341   1.475       .  S
O1301      V1309   1.896       .  S
O1301      C1919   1.263   1_545  A
O1302      V1613   1.898   1_554  S
O1302      C1920   1.264   1_545  A
O1303      V1309   1.899       .  S
O1303      C2225   1.264       .  A
O1304      V1613   1.898   1_554  S
O1304      C1922   1.265   1_544  A
O1305      V1614   1.897       .  S
O1305      C1618   1.263       .  A
O1306      V1310   1.896   1_554  S
O1306      C1313   1.264   1_554  A
O1307      V1310   1.900   1_554  S
O1307      C1312   1.265       .  A
O1308      V1614   1.900       .  S
O1308      C1311   1.264       .  A
V1309      O1606   1.898       .  S
V1309      O1608   1.898       .  S
V1309      V2222   2.085   1_545  T
V1310      O1609   1.897       .  S
V1310      O1612   1.900       .  S
V1310      V2221   2.085       .  T
C1311      O1909   1.263       .  A
C1311      C1416   1.470       .  S
C1312      O1910   1.264       .  A
C1312      C1401   1.477       .  S
C1313      O2215   1.264       .  A
C1313      C1353   1.472       .  S
C1314      O1912   1.265   1_556  A
C1314      O1609   1.263       .  A
C1314      C1365   1.476       .  S
O1315      V1323   1.897   1_554  S
O1315      C1325   1.264       .  A
O1316      V1627   1.898       .  S
O1316      C1326   1.264       .  A
O1317      V1323   1.900       .  S
O1317      C1327   1.264       .  A
O1318      V1627   1.902       .  S
O1318      C1632   1.264       .  A
O1319      V1628   1.898       .  S
O1319      C1328   1.263       .  A
O1320      V1324   1.900       .  S
O1320      C1631   1.264       .  A
O1321      V1324   1.898       .  S
O1321      C1326   1.266       .  A
O1322      V1628   1.898   1_554  S
O1322      C1325   1.264       .  A
V1323      O1620   1.898       .  S
V1323      O1622   1.902   1_556  S
V1323      V1628   2.085       .  T
V1324      O1623   1.898       .  S
V1324      O1626   1.898       .  S
V1324      V1627   2.085       .  T
C1325      C1377   1.474       .  S
C1326      C1392   1.489       .  S
C1327      O1624   1.264   1_556  A
C1327      C1344   1.473   1_556  S
C1328      O1622   1.264   1_556  A
C1328      C1332   1.472       .  S
C1329      C1634   1.402   1_554  A
C1329      C1334   1.412       .  A
C1330      C1633   1.402       .  A
C1330      C1331   1.400       .  A
C1330      H1339   1.084       .  S
C1331      C1636   1.412       .  A
C1331      S1335   1.804       .  S
C1332      C1635   1.412       .  A
C1332      C1333   1.402   1_556  A
C1333      C1334   1.400       .  A
C1333      H1340   1.084       .  S
C1334      S1336   1.803       .  S
S1335      H1338   1.406       .  S
S1336      H1337   1.406       .  S
C1341      C1342   1.402   1_556  A
C1341      C1650   1.413       .  A
C1342      C1343   1.399       .  A
C1342      H1351   1.083       .  S
C1343      C1344   1.412       .  A
C1343      S1347   1.804       .  S
C1344      C1649   1.403   1_554  A
C1345      C1648   1.403       .  A
C1345      C1346   1.400       .  A
C1345      H1352   1.085       .  S
C1346      C1645   1.413       .  A
C1346      S1348   1.803       .  S
S1347      H1350   1.406       .  S
S1348      H1349   1.406       .  S
C1353      C1354   1.402   1_556  A
C1353      C2270   1.413       .  A
C1354      C1355   1.397       .  A
C1354      H1363   1.084       .  S
C1355      C1356   1.412       .  A
C1355      S1359   1.804       .  S
C1356      C1892   1.472       .  S
C1356      C2269   1.403   1_554  A
C1357      C2268   1.403       .  A
C1357      C1358   1.399       .  A
C1357      H1364   1.084       .  S
C1358      C2265   1.413       .  A
C1358      S1360   1.803       .  S
S1359      H1362   1.407       .  S
S1360      H1361   1.406       .  S
C1365      C1974   1.403   1_556  A
C1365      C1674   1.413       .  A
C1366      C1973   1.403   1_544  A
C1366      C1367   1.398       .  A
C1366      H1375   1.084       .  S
C1367      C1976   1.415   1_545  A
C1367      S1371   1.805       .  S
C1368      C1891   1.476       .  S
C1368      C1975   1.415       .  A
C1368      C1673   1.404   1_554  A
C1369      C1672   1.404       .  A
C1369      C1370   1.399       .  A
C1369      H1376   1.084       .  S
C1370      C1669   1.413       .  A
C1370      S1372   1.799       .  S
S1371      H1374   1.404       .  S
S1372      H1373   1.407       .  S
C1377      C1378   1.402       .  A
C1377      C1382   1.413       .  A
C1378      C1379   1.398       .  A
C1378      H1387   1.084       .  S
C1379      C1380   1.415       .  A
C1379      S1383   1.804       .  S
C1380      C1381   1.403       .  A
C1381      C1382   1.399       .  A
C1381      H1388   1.084       .  S
C1382      S1384   1.803       .  S
S1383      H1386   1.404       .  S
S1384      H1385   1.407       .  S
C1389      C1390   1.399       .  A
C1389      C1394   1.410       .  A
C1390      C1391   1.399       .  A
C1390      H1399   1.084       .  S
C1391      C1392   1.420       .  A
C1391      S1395   1.801       .  S
C1392      C1393   1.408       .  A
C1393      C1394   1.399       .  A
C1393      H1400   1.083       .  S
C1394      S1396   1.806       .  S
S1395      H1398   1.408       .  S
S1396      H1397   1.401       .  S
C1401      C2010   1.404       .  A
C1401      C1406   1.414       .  A
C1402      C2009   1.404   1_545  A
C1402      C1403   1.399       .  A
C1402      H1411   1.083       .  S
C1403      C2012   1.413       .  A
C1403      S1407   1.803       .  S
C1404      C2011   1.413       .  A
C1404      C1405   1.403       .  A
C1405      C1406   1.400       .  A
C1405      H1412   1.083       .  S
C1406      S1408   1.803       .  S
S1407      H1410   1.407       .  S
S1408      H1409   1.407       .  S
C1413      C1414   1.406       .  A
C1413      C1418   1.418       .  A
C1414      C1415   1.398       .  A
C1414      H1423   1.084       .  S
C1415      C1416   1.409       .  A
C1415      S2027   1.801       .  S
C1416      C1417   1.400       .  A
C1417      C1418   1.399       .  A
C1417      H2032   1.084       .  S
C1418      S2028   1.802       .  S
S1419      C2023   1.801       .  S
S1419      H2030   1.405       .  S
S1420      C2026   1.802       .  S
S1420      H2029   1.408       .  S
H1421      S2028   1.408       .  S
H1422      S2027   1.405       .  S
H1424      C2025   1.084       .  S
C1425      C1426   1.402       .  A
C1425      C1430   1.413       .  A
C1426      C1427   1.399       .  A
C1426      H1435   1.084       .  S
C1427      C1428   1.415       .  A
C1427      S1431   1.804       .  S
C1428      C1429   1.402       .  A
C1429      C1430   1.397       .  A
C1429      H1436   1.084       .  S
C1430      S1432   1.804       .  S
S1431      H1434   1.404       .  S
S1432      H1433   1.407       .  S
C1437      C1438   1.403       .  A
C1437      C1442   1.412       .  A
C1438      C1439   1.400       .  A
C1438      H1447   1.084       .  S
C1439      C1440   1.413       .  A
C1439      S1443   1.803       .  S
C1440      C1441   1.402       .  A
C1441      C1442   1.397       .  A
C1441      H1448   1.084       .  S
C1442      S1444   1.804       .  S
S1443      H1446   1.407       .  S
S1444      H1445   1.407       .  S
C1449      C1450   1.405   1_455  A
C1450      C1451   1.400       .  A
C1450      H1459   1.084       .  S
C1451      C1452   1.412   1_655  A
C1451      S1455   1.803       .  S
C1453      C1454   1.398       .  A
C1453      H1460   1.084       .  S
C1454      S1456   1.802       .  S
S1455      H1458   1.406       .  S
S1456      H1457   1.403       .  S
C1461      C1462   1.404       .  A
C1462      C1463   1.399       .  A
C1462      H1471   1.084       .  S
C1463      C1464   1.412       .  A
C1463      S1467   1.803       .  S
C1465      C1466   1.399       .  A
C1465      H1472   1.084       .  S
C1466      S1468   1.803       .  S
S1467      H1470   1.406       .  S
S1468      H1469   1.405       .  S
C1473      C2086   1.414       .  A
C1474      C1475   1.400       .  A
C1474      H1483   1.084       .  S
C1475      S1479   1.803       .  S
C1476      C1836   1.475       .  S
C1476      C2085   1.403   1_545  A
C1477      C2084   1.403       .  A
C1477      C1478   1.398       .  A
C1477      H1484   1.083       .  S
C1478      C2081   1.414       .  A
C1478      S1480   1.805       .  S
S1479      H1482   1.403       .  S
S1480      H1481   1.403       .  S
C1485      C1835   1.483   1_545  S
C1485      C1490   1.418       .  A
C1486      C1487   1.398       .  A
C1486      H1495   1.083       .  S
C1487      S1491   1.804       .  S
C1488      C1489   1.401   1_565  A
C1489      C1490   1.400       .  A
C1489      H1496   1.084       .  S
C1490      S1492   1.803       .  S
S1491      H1494   1.405       .  S
S1492      H1493   1.404       .  S
C1497      C1498   1.402   1_455  A
C1498      C1499   1.399       .  A
C1498      H1507   1.084       .  S
C1499      C1500   1.412   1_655  A
C1499      S1503   1.803       .  S
C1501      C1502   1.400       .  A
C1501      H1508   1.084       .  S
C1502      S1504   1.801       .  S
S1503      H1506   1.406       .  S
S1504      H1505   1.406       .  S
C1509      C1510   1.402       .  A
C1510      C1511   1.399       .  A
C1510      H1519   1.084   1_655  S
C1511      C1512   1.411       .  A
C1511      S1515   1.802       .  S
C1513      C1514   1.400       .  A
C1513      H1520   1.084       .  S
C1514      S1516   1.804       .  S
S1515      H1518   1.404       .  S
S1516      H1517   1.403       .  S
O1521      V2137   1.898   1_545  S
O1522      V1529   1.902       .  S
O1523      V1529   1.900       .  S
O1523      C1533   1.264   1_655  A
O1524      V2137   1.899   1_545  S
O1524      C1534   1.263       .  A
O1525      V2138   1.904       .  S
O1526      V1530   1.901       .  S
O1527      V2138   1.896       .  S
O1527      C2140   1.264       .  A
O1528      V1530   1.900       .  S
O1528      C1531   1.264       .  A
V1529      O2129   1.898       .  S
V1529      O2132   1.899       .  S
V1530      O2133   1.904       .  S
V1530      O2135   1.896       .  S
C1531      C2397   1.483       .  S
C1532      O2135   1.264       .  A
C1532      C2388   1.475       .  S
C1533      C1801   1.473       .  S
C1534      C1813   1.469       .  S
O1535      V1543   1.901       .  S
O1536      V1543   1.897       .  S
O1537      V1543   1.903       .  S
O1538      V1543   1.900       .  S
O1539      V1544   1.902       .  S
O1539      C1548   1.264       .  A
O1540      V1544   1.897       .  S
O1540      C1547   1.263   1_655  A
O1541      V1544   1.902       .  S
O1541      C1546   1.265   1_655  A
O1542      V1544   1.898       .  S
O1542      C1545   1.264   1_655  A
C1545      C1765   1.477   1_455  S
C1546      C1756   1.473       .  S
C1547      C1804   1.472       .  S
C1548      C1816   1.469       .  S
O1549      V1557   1.898       .  S
O1549      C1559   1.265       .  A
O1550      V1557   1.899       .  S
O1550      C1560   1.264       .  A
O1551      V1557   1.895       .  S
O1551      C1561   1.263       .  A
O1552      V2165   1.899   1_545  S
O1552      C1562   1.264       .  A
O1553      V2166   1.896       .  S
O1553      C1562   1.264       .  A
O1554      V1558   1.900       .  S
O1554      C1561   1.264       .  A
O1555      V1558   1.899       .  S
O1555      C1560   1.264       .  A
O1556      V1558   1.897       .  S
O1556      C1559   1.264       .  A
V1557      O2160   1.899       .  S
V1557      V1558   2.086       .  T
V1558      O2161   1.896       .  S
C1559      C1717   1.482       .  S
C1560      C1708   1.475       .  S
C1561      C1729   1.473       .  S
C1562      C1741   1.471       .  S
O1563      V1571   1.900       .  S
O1563      C1573   1.264       .  A
O1564      V1571   1.899       .  S
O1564      C1574   1.265       .  A
O1565      V1571   1.896       .  S
O1565      C1575   1.263       .  A
O1566      V1571   1.895       .  S
O1566      C1576   1.263       .  A
O1567      V1572   1.900       .  S
O1567      C1576   1.265       .  A
O1568      V1572   1.899       .  S
O1568      C1575   1.265       .  A
O1569      V1572   1.895       .  S
O1569      C1574   1.263       .  A
O1570      V1572   1.897       .  S
O1570      C1573   1.263       .  A
V1571      V1572   2.087       .  T
C1573      C1693   1.467       .  S
C1574      C1684   1.475       .  S
C1575      C1732   1.474       .  S
C1576      C1744   1.471       .  S
O1578      C1588   1.263       .  A
O1579      V1585   1.899       .  S
O1579      C1589   1.265   1_545  A
O1581      C2198   1.264       .  A
O1582      V1586   1.897   1_455  S
O1583      C1892   1.264       .  A
O1584      C2195   1.265       .  A
C1587      O2192   1.265       .  A
C1587      C2280   1.476       .  S
C1588      O1887   1.264   1_545  A
C1588      C2268   1.472       .  S
C1589      C1777   1.474       .  S
C1590      O2189   1.264       .  A
C1590      C1792   1.470       .  S
O1592      C1602   1.265   1_655  A
O1593      V1599   1.902   1_556  S
O1594      C1604   1.264       .  A
O1596      V1600   1.898       .  S
O1596      C1603   1.264       .  A
O1598      C1601   1.264       .  A
C1601      C1768   1.474       .  S
C1602      C1753   1.478       .  S
C1603      C1633   1.472       .  S
C1604      C1645   1.475       .  S
O1605      V1613   1.896       .  S
O1605      C2223   1.263   1_545  A
O1606      C2224   1.264   1_545  A
O1607      V1613   1.899       .  S
O1607      C1921   1.264       .  A
O1608      C2226   1.265   1_545  A
O1610      V1614   1.896       .  S
O1610      C1617   1.264       .  A
O1611      V1614   1.900       .  S
O1611      C1616   1.265       .  A
O1612      C1615   1.264       .  A
V1613      V1918   2.085   1_545  T
V1614      V1917   2.085       .  T
C1615      O2213   1.263       .  A
C1615      C1720   1.470       .  S
C1616      O2214   1.264       .  A
C1616      C1705   1.477       .  S
C1617      O1911   1.264       .  A
C1617      C1657   1.472       .  S
C1618      O2216   1.265       .  A
C1618      C1669   1.476       .  S
O1619      V1627   1.897       .  S
O1619      C1629   1.264       .  A
O1620      C1630   1.264       .  A
O1621      V1627   1.900       .  S
O1621      C1631   1.264       .  A
O1623      C1632   1.263       .  A
O1624      V1628   1.900   1_554  S
O1625      V1628   1.898       .  S
O1625      C1630   1.266       .  A
O1626      C1629   1.264       .  A
C1629      C1681   1.474       .  S
C1630      C1696   1.489       .  S
C1631      C1648   1.473       .  S
C1632      C1636   1.472       .  S
C1633      C1638   1.412       .  A
C1634      C1635   1.400       .  A
C1634      H1643   1.084       .  S
C1635      S1639   1.804       .  S
C1636      C1637   1.402       .  A
C1637      C1638   1.400       .  A
C1637      H1644   1.084       .  S
C1638      S1640   1.803       .  S
S1639      H1642   1.406       .  S
S1640      H1641   1.406       .  S
C1645      C1646   1.402       .  A
C1646      C1647   1.399       .  A
C1646      H1655   1.083       .  S
C1647      C1648   1.412       .  A
C1647      S1651   1.804       .  S
C1649      C1650   1.400       .  A
C1649      H1656   1.085       .  S
C1650      S1652   1.803       .  S
S1651      H1654   1.406       .  S
S1652      H1653   1.406       .  S
C1657      C1658   1.402       .  A
C1657      C1966   1.413       .  A
C1658      C1659   1.397       .  A
C1658      H1667   1.084       .  S
C1659      C1660   1.412       .  A
C1659      S1663   1.804       .  S
C1660      C2196   1.472       .  S
C1660      C1965   1.403       .  A
C1661      C1964   1.403   1_556  A
C1661      C1662   1.399       .  A
C1661      H1668   1.084       .  S
C1662      C1961   1.413       .  A
C1662      S1664   1.803       .  S
S1663      H1666   1.407       .  S
S1664      H1665   1.406       .  S
C1669      C2278   1.403       .  A
C1670      C2277   1.403   1_545  A
C1670      C1671   1.398       .  A
C1670      H1679   1.084       .  S
C1671      C2280   1.415   1_545  A
C1671      S1675   1.805       .  S
C1672      C2195   1.476       .  S
C1672      C2279   1.415       .  A
C1673      C1674   1.399       .  A
C1673      H1680   1.084       .  S
C1674      S1676   1.799       .  S
S1675      H1678   1.404       .  S
S1676      H1677   1.407       .  S
C1681      C1682   1.402       .  A
C1681      C1686   1.413       .  A
C1682      C1683   1.398       .  A
C1682      H1691   1.084       .  S
C1683      C1684   1.415       .  A
C1683      S1687   1.804       .  S
C1684      C1685   1.403       .  A
C1685      C1686   1.399       .  A
C1685      H1692   1.084       .  S
C1686      S1688   1.803       .  S
S1687      H1690   1.404       .  S
S1688      H1689   1.407       .  S
C1693      C1694   1.399       .  A
C1693      C1698   1.410       .  A
C1694      C1695   1.399       .  A
C1694      H1703   1.084       .  S
C1695      C1696   1.420       .  A
C1695      S1699   1.801       .  S
C1696      C1697   1.408       .  A
C1697      C1698   1.399       .  A
C1697      H1704   1.083       .  S
C1698      S1700   1.806       .  S
S1699      H1702   1.408       .  S
S1700      H1701   1.401       .  S
C1705      C2314   1.404       .  A
C1705      C1710   1.414       .  A
C1706      C2313   1.404   1_545  A
C1706      C1707   1.399       .  A
C1706      H1715   1.083       .  S
C1707      C2316   1.413       .  A
C1707      S1711   1.803       .  S
C1708      C2315   1.413       .  A
C1708      C1709   1.403       .  A
C1709      C1710   1.400       .  A
C1709      H1716   1.083       .  S
C1710      S1712   1.803       .  S
S1711      H1714   1.407       .  S
S1712      H1713   1.407       .  S
C1717      C1718   1.406       .  A
C1717      C1722   1.418       .  A
C1718      C1719   1.398       .  A
C1718      H1727   1.084       .  S
C1719      C1720   1.409       .  A
C1719      S2331   1.801       .  S
C1720      C1721   1.400       .  A
C1721      C1722   1.399       .  A
C1721      H2336   1.084       .  S
C1722      S2332   1.802       .  S
S1723      C2327   1.801       .  S
S1723      H2334   1.405       .  S
S1724      C2330   1.802       .  S
S1724      H2333   1.408       .  S
H1725      S2332   1.408       .  S
H1726      S2331   1.405       .  S
H1728      C2329   1.084       .  S
C1729      C1730   1.402       .  A
C1729      C1734   1.413       .  A
C1730      C1731   1.399       .  A
C1730      H1739   1.084       .  S
C1731      C1732   1.415       .  A
C1731      S1735   1.804       .  S
C1732      C1733   1.402       .  A
C1733      C1734   1.397       .  A
C1733      H1740   1.084       .  S
C1734      S1736   1.804       .  S
S1735      H1738   1.404       .  S
S1736      H1737   1.407       .  S
C1741      C1742   1.403       .  A
C1741      C1746   1.412       .  A
C1742      C1743   1.400       .  A
C1742      H1751   1.084       .  S
C1743      C1744   1.413       .  A
C1743      S1747   1.803       .  S
C1744      C1745   1.402       .  A
C1745      C1746   1.397       .  A
C1745      H1752   1.084       .  S
C1746      S1748   1.804       .  S
S1747      H1750   1.407       .  S
S1748      H1749   1.407       .  S
C1753      C1754   1.405   1_455  A
C1754      C1755   1.400       .  A
C1754      H1763   1.084       .  S
C1755      C1756   1.412   1_655  A
C1755      S1759   1.803       .  S
C1757      C1758   1.398       .  A
C1757      H1764   1.084       .  S
C1758      S1760   1.802       .  S
S1759      H1762   1.406       .  S
S1760      H1761   1.403       .  S
C1765      C1766   1.404       .  A
C1766      C1767   1.399       .  A
C1766      H1775   1.084       .  S
C1767      C1768   1.412       .  A
C1767      S1771   1.803       .  S
C1769      C1770   1.399       .  A
C1769      H1776   1.084       .  S
C1770      S1772   1.803       .  S
S1771      H1774   1.406       .  S
S1772      H1773   1.405       .  S
C1777      C2390   1.414       .  A
C1778      C1779   1.400       .  A
C1778      H1787   1.084       .  S
C1779      S1783   1.803       .  S
C1780      C2140   1.475       .  S
C1780      C2389   1.403   1_545  A
C1781      C2388   1.403       .  A
C1781      C1782   1.398       .  A
C1781      H1788   1.083       .  S
C1782      C2385   1.414       .  A
C1782      S1784   1.805       .  S
S1783      H1786   1.403       .  S
S1784      H1785   1.403       .  S
C1789      C2139   1.483   1_545  S
C1789      C1794   1.418       .  A
C1790      C1791   1.398       .  A
C1790      H1799   1.083       .  S
C1791      S1795   1.804       .  S
C1792      C1793   1.401   1_565  A
C1793      C1794   1.400       .  A
C1793      H1800   1.084       .  S
C1794      S1796   1.803       .  S
S1795      H1798   1.405       .  S
S1796      H1797   1.404       .  S
C1801      C1802   1.402   1_455  A
C1802      C1803   1.399       .  A
C1802      H1811   1.084       .  S
C1803      C1804   1.412   1_655  A
C1803      S1807   1.803       .  S
C1805      C1806   1.400       .  A
C1805      H1812   1.084       .  S
C1806      S1808   1.801       .  S
S1807      H1810   1.406       .  S
S1808      H1809   1.406       .  S
C1813      C1814   1.402       .  A
C1814      C1815   1.399       .  A
C1814      H1823   1.084   1_655  S
C1815      C1816   1.411       .  A
C1815      S1819   1.802       .  S
C1817      C1818   1.400       .  A
C1817      H1824   1.084       .  S
C1818      S1820   1.804       .  S
S1819      H1822   1.404       .  S
S1820      H1821   1.403       .  S
O1826      V1833   1.902       .  S
O1827      V1833   1.900       .  S
O1827      C1837   1.264   1_655  A
O1828      C1838   1.263       .  A
O1830      V1834   1.901   1_565  S
O1832      V1834   1.900   1_565  S
O1832      C1835   1.264       .  A
C1837      C2105   1.473       .  S
C1838      C2117   1.469       .  S
O1839      V1847   1.901       .  S
O1840      V1847   1.897       .  S
O1841      V1847   1.903       .  S
O1842      V1847   1.900       .  S
O1843      V1848   1.902       .  S
O1843      C1852   1.264       .  A
O1844      V1848   1.897       .  S
O1844      C1851   1.263   1_655  A
O1845      V1848   1.902       .  S
O1845      C1850   1.265   1_655  A
O1846      V1848   1.898       .  S
O1846      C1849   1.264   1_655  A
C1849      C2069   1.477   1_455  S
C1850      C2060   1.473       .  S
C1851      C2108   1.472       .  S
C1852      C2120   1.469       .  S
O1853      V1861   1.898   1_545  S
O1853      C1863   1.265   1_545  A
O1854      V1861   1.899       .  S
O1854      C1864   1.264   1_565  A
O1855      V1861   1.895       .  S
O1855      C1865   1.263       .  A
O1856      C1866   1.264       .  A
O1857      C1866   1.264       .  A
O1858      V1862   1.900   1_565  S
O1858      C1865   1.264       .  A
O1859      V1862   1.899       .  S
O1859      C1864   1.264       .  A
O1860      V1862   1.897   1_565  S
O1860      C1863   1.264       .  A
V1861      V1862   2.086   1_565  T
C1863      C2021   1.482       .  S
C1864      C2012   1.475       .  S
C1865      C2033   1.473       .  S
C1866      C2045   1.471       .  S
O1867      V1875   1.900       .  S
O1867      C1877   1.264       .  A
O1868      V1875   1.899       .  S
O1868      C1878   1.265       .  A
O1869      V1875   1.896       .  S
O1869      C1879   1.263       .  A
O1870      V1875   1.895       .  S
O1870      C1880   1.263       .  A
O1871      V1876   1.900       .  S
O1871      C1880   1.265       .  A
O1872      V1876   1.899       .  S
O1872      C1879   1.265       .  A
O1873      V1876   1.895       .  S
O1873      C1878   1.263       .  A
O1874      V1876   1.897       .  S
O1874      C1877   1.263       .  A
V1875      V1876   2.087       .  T
C1877      C1997   1.467       .  S
C1878      C1988   1.475       .  S
C1879      C2036   1.474       .  S
C1880      C2048   1.471       .  S
O1881      V2193   1.895       .  S
O1881      C2195   1.263       .  A
O1882      C1892   1.263   1_556  A
O1883      V1889   1.899       .  S
O1883      C1893   1.265       .  A
O1886      V1890   1.897   1_455  S
O1887      V2194   1.897       .  S
V1889      O2185   1.895       .  S
V1890      O2191   1.897       .  S
C1891      O2185   1.263       .  A
C1893      C2081   1.474       .  S
C1894      C2096   1.470       .  S
O1896      V2207   1.900       .  S
O1896      C1906   1.265   1_655  A
O1897      V1903   1.902       .  S
O1897      C2211   1.264       .  A
O1898      C1908   1.264   1_554  A
O1899      C2212   1.265       .  A
O1900      V1904   1.898       .  S
O1900      C1907   1.264       .  A
O1902      V2208   1.899       .  S
O1902      C1905   1.264       .  A
V1903      O2200   1.900       .  S
V1903      V2208   2.085       .  T
V1904      O2206   1.899   1_554  S
V1904      V2207   2.085       .  T
C1905      C2072   1.474       .  S
C1906      C2057   1.478       .  S
C1907      O2201   1.264   1_554  A
C1907      C1937   1.472       .  S
C1908      O2203   1.265       .  A
C1908      C1949   1.475       .  S
O1909      V1917   1.896       .  S
O1910      V2221   1.898   1_554  S
O1911      V1917   1.899       .  S
O1912      V2221   1.898   1_554  S
O1913      V2222   1.897       .  S
O1913      C2226   1.263       .  A
O1914      V1918   1.896   1_554  S
O1914      C1921   1.264   1_564  A
O1915      V1918   1.900   1_554  S
O1915      C1920   1.265       .  A
O1916      V2222   1.900       .  S
O1916      C1919   1.264       .  A
V1917      O2214   1.898       .  S
V1917      O2216   1.898       .  S
V1918      O2217   1.897       .  S
V1918      O2220   1.900       .  S
C1919      C2024   1.470       .  S
C1920      C2009   1.477       .  S
C1921      C1961   1.472       .  S
C1922      O2217   1.263       .  A
C1922      C1973   1.476       .  S
O1923      V1931   1.897   1_554  S
O1923      C1933   1.264       .  A
O1924      V2235   1.898       .  S
O1924      C1934   1.264       .  A
O1925      V1931   1.900       .  S
O1925      C1935   1.264       .  A
O1926      V2235   1.902       .  S
O1926      C2240   1.264       .  A
O1927      V2236   1.898       .  S
O1927      C1936   1.263       .  A
O1928      V1932   1.900       .  S
O1928      C2239   1.264       .  A
O1929      V1932   1.898       .  S
O1929      C1934   1.266       .  A
O1930      V2236   1.898   1_554  S
O1930      C1933   1.264       .  A
V1931      O2228   1.898       .  S
V1931      O2230   1.902   1_556  S
V1931      V2236   2.085       .  T
V1932      O2231   1.898       .  S
V1932      O2234   1.898       .  S
V1932      V2235   2.085       .  T
C1933      C1985   1.474       .  S
C1934      C2000   1.489       .  S
C1935      O2232   1.264   1_556  A
C1935      C1952   1.473   1_556  S
C1936      O2230   1.264   1_556  A
C1936      C1940   1.472       .  S
C1937      C2242   1.402   1_554  A
C1937      C1942   1.412       .  A
C1938      C2241   1.402       .  A
C1938      C1939   1.400       .  A
C1938      H1947   1.084       .  S
C1939      C2244   1.412       .  A
C1939      S1943   1.804       .  S
C1940      C2243   1.412       .  A
C1940      C1941   1.402   1_556  A
C1941      C1942   1.400       .  A
C1941      H1948   1.084       .  S
C1942      S1944   1.803       .  S
S1943      H1946   1.406       .  S
S1944      H1945   1.406       .  S
C1949      C1950   1.402   1_556  A
C1949      C2258   1.413       .  A
C1950      C1951   1.399       .  A
C1950      H1959   1.083       .  S
C1951      C1952   1.412       .  A
C1951      S1955   1.804       .  S
C1952      C2257   1.403   1_554  A
C1953      C2256   1.403       .  A
C1953      C1954   1.400       .  A
C1953      H1960   1.085       .  S
C1954      C2253   1.413       .  A
C1954      S1956   1.803       .  S
S1955      H1958   1.406       .  S
S1956      H1957   1.406       .  S
C1961      C1962   1.402   1_546  A
C1962      C1963   1.397       .  A
C1962      H1971   1.084       .  S
C1963      C1964   1.412   1_565  A
C1963      S1967   1.804       .  S
C1965      C1966   1.399       .  A
C1965      H1972   1.084       .  S
C1966      S1968   1.803       .  S
S1967      H1970   1.407       .  S
S1968      H1969   1.406       .  S
C1973      C2282   1.413       .  A
C1974      C1975   1.398       .  A
C1974      H1983   1.084       .  S
C1975      S1979   1.805       .  S
C1976      C2281   1.404   1_554  A
C1977      C2280   1.404       .  A
C1977      C1978   1.399       .  A
C1977      H1984   1.084       .  S
C1978      C2277   1.413       .  A
C1978      S1980   1.799       .  S
S1979      H1982   1.404       .  S
S1980      H1981   1.407       .  S
C1985      C1986   1.402       .  A
C1985      C1990   1.413       .  A
C1986      C1987   1.398       .  A
C1986      H1995   1.084       .  S
C1987      C1988   1.415       .  A
C1987      S1991   1.804       .  S
C1988      C1989   1.403       .  A
C1989      C1990   1.399       .  A
C1989      H1996   1.084       .  S
C1990      S1992   1.803       .  S
S1991      H1994   1.404       .  S
S1992      H1993   1.407       .  S
C1997      C1998   1.399       .  A
C1997      C2002   1.410       .  A
C1998      C1999   1.399       .  A
C1998      H2007   1.084       .  S
C1999      C2000   1.420       .  A
C1999      S2003   1.801       .  S
C2000      C2001   1.408       .  A
C2001      C2002   1.399       .  A
C2001      H2008   1.083       .  S
C2002      S2004   1.806       .  S
S2003      H2006   1.408       .  S
S2004      H2005   1.401       .  S
C2009      C2014   1.414       .  A
C2010      C2011   1.399       .  A
C2010      H2019   1.083       .  S
C2011      S2015   1.803       .  S
C2012      C2013   1.403   1_545  A
C2013      C2014   1.400       .  A
C2013      H2020   1.083       .  S
C2014      S2016   1.803       .  S
S2015      H2018   1.407       .  S
S2016      H2017   1.407       .  S
C2021      C2022   1.406   1_565  A
C2021      C2026   1.418       .  A
C2022      C2023   1.398       .  A
C2022      H2031   1.084       .  S
C2023      C2024   1.409   1_545  A
C2024      C2025   1.400       .  A
C2025      C2026   1.399       .  A
C2033      C2034   1.402       .  A
C2033      C2038   1.413       .  A
C2034      C2035   1.399       .  A
C2034      H2043   1.084       .  S
C2035      C2036   1.415       .  A
C2035      S2039   1.804       .  S
C2036      C2037   1.402       .  A
C2037      C2038   1.397       .  A
C2037      H2044   1.084       .  S
C2038      S2040   1.804       .  S
S2039      H2042   1.404       .  S
S2040      H2041   1.407       .  S
C2045      C2046   1.403       .  A
C2045      C2050   1.412       .  A
C2046      C2047   1.400       .  A
C2046      H2055   1.084       .  S
C2047      C2048   1.413       .  A
C2047      S2051   1.803       .  S
C2048      C2049   1.402       .  A
C2049      C2050   1.397       .  A
C2049      H2056   1.084       .  S
C2050      S2052   1.804       .  S
S2051      H2054   1.407       .  S
S2052      H2053   1.407       .  S
C2057      C2058   1.405   1_455  A
C2058      C2059   1.400       .  A
C2058      H2067   1.084       .  S
C2059      C2060   1.412   1_655  A
C2059      S2063   1.803       .  S
C2061      C2062   1.398       .  A
C2061      H2068   1.084       .  S
C2062      S2064   1.802       .  S
S2063      H2066   1.406       .  S
S2064      H2065   1.403       .  S
C2069      C2070   1.404       .  A
C2070      C2071   1.399       .  A
C2070      H2079   1.084       .  S
C2071      C2072   1.412       .  A
C2071      S2075   1.803       .  S
C2073      C2074   1.399       .  A
C2073      H2080   1.084       .  S
C2074      S2076   1.803       .  S
S2075      H2078   1.406       .  S
S2076      H2077   1.405       .  S
C2082      C2083   1.400       .  A
C2082      H2091   1.084       .  S
C2083      S2087   1.803       .  S
C2085      C2086   1.398       .  A
C2085      H2092   1.083       .  S
C2086      S2088   1.805       .  S
S2087      H2090   1.403       .  S
S2088      H2089   1.403       .  S
C2093      C2098   1.418       .  A
C2094      C2095   1.398       .  A
C2094      H2103   1.083       .  S
C2095      S2099   1.804       .  S
C2096      C2097   1.401       .  A
C2097      C2098   1.400       .  A
C2097      H2104   1.084       .  S
C2098      S2100   1.803       .  S
S2099      H2102   1.405       .  S
S2100      H2101   1.404       .  S
C2105      C2106   1.402   1_455  A
C2106      C2107   1.399       .  A
C2106      H2115   1.084       .  S
C2107      C2108   1.412   1_655  A
C2107      S2111   1.803       .  S
C2109      C2110   1.400       .  A
C2109      H2116   1.084       .  S
C2110      S2112   1.801       .  S
S2111      H2114   1.406       .  S
S2112      H2113   1.406       .  S
C2117      C2118   1.402       .  A
C2118      C2119   1.399       .  A
C2118      H2127   1.084   1_655  S
C2119      C2120   1.411       .  A
C2119      S2123   1.802       .  S
C2121      C2122   1.400       .  A
C2121      H2128   1.084       .  S
C2122      S2124   1.804       .  S
S2123      H2126   1.404       .  S
S2124      H2125   1.403       .  S
O2130      V2137   1.902       .  S
O2131      V2137   1.900       .  S
O2131      C2141   1.264   1_655  A
O2132      C2142   1.263       .  A
O2134      V2138   1.901   1_565  S
O2136      V2138   1.900   1_565  S
O2136      C2139   1.264       .  A
C2141      C2409   1.473       .  S
C2142      C2421   1.469       .  S
O2143      V2151   1.901       .  S
O2144      V2151   1.897       .  S
O2145      V2151   1.903       .  S
O2146      V2151   1.900       .  S
O2147      V2152   1.902       .  S
O2147      C2156   1.264       .  A
O2148      V2152   1.897       .  S
O2148      C2155   1.263   1_655  A
O2149      V2152   1.902       .  S
O2149      C2154   1.265   1_655  A
O2150      V2152   1.898       .  S
O2150      C2153   1.264   1_655  A
C2153      C2373   1.477   1_455  S
C2154      C2364   1.473       .  S
C2155      C2412   1.472       .  S
C2156      C2424   1.469       .  S
O2157      V2165   1.898   1_545  S
O2157      C2167   1.265   1_545  A
O2158      V2165   1.899       .  S
O2158      C2168   1.264   1_565  A
O2159      V2165   1.895       .  S
O2159      C2169   1.263       .  A
O2160      C2170   1.264       .  A
O2161      C2170   1.264       .  A
O2162      V2166   1.900   1_565  S
O2162      C2169   1.264       .  A
O2163      V2166   1.899       .  S
O2163      C2168   1.264       .  A
O2164      V2166   1.897   1_565  S
O2164      C2167   1.264       .  A
V2165      V2166   2.086   1_565  T
C2167      C2325   1.482       .  S
C2168      C2316   1.475       .  S
C2169      C2337   1.473       .  S
C2170      C2349   1.471       .  S
O2171      V2179   1.900       .  S
O2171      C2181   1.264       .  A
O2172      V2179   1.899       .  S
O2172      C2182   1.265       .  A
O2173      V2179   1.896       .  S
O2173      C2183   1.263       .  A
O2174      V2179   1.895       .  S
O2174      C2184   1.263       .  A
O2175      V2180   1.900       .  S
O2175      C2184   1.265       .  A
O2176      V2180   1.899       .  S
O2176      C2183   1.265       .  A
O2177      V2180   1.895       .  S
O2177      C2182   1.263       .  A
O2178      V2180   1.897       .  S
O2178      C2181   1.263       .  A
V2179      V2180   2.087       .  T
C2181      C2301   1.467       .  S
C2182      C2292   1.475       .  S
C2183      C2340   1.474       .  S
C2184      C2352   1.471       .  S
O2186      C2196   1.263       .  A
O2187      V2193   1.899       .  S
O2187      C2197   1.265       .  A
O2190      V2194   1.897   1_455  S
C2197      C2385   1.474       .  S
C2198      C2400   1.470       .  S
O2200      C2210   1.265   1_655  A
O2201      V2207   1.902   1_556  S
O2202      C2212   1.264       .  A
O2204      V2208   1.898       .  S
O2204      C2211   1.264       .  A
O2206      C2209   1.264       .  A
C2209      C2376   1.474       .  S
C2210      C2361   1.478       .  S
C2211      C2241   1.472       .  S
C2212      C2253   1.475       .  S
O2213      V2221   1.896       .  S
O2215      V2221   1.899       .  S
O2218      V2222   1.896       .  S
O2218      C2225   1.264   1_565  A
O2219      V2222   1.900       .  S
O2219      C2224   1.265       .  A
O2220      C2223   1.264       .  A
C2223      C2328   1.470       .  S
C2224      C2313   1.477       .  S
C2225      C2265   1.472       .  S
C2226      C2277   1.476       .  S
O2227      V2235   1.897       .  S
O2227      C2237   1.264       .  A
O2228      C2238   1.264       .  A
O2229      V2235   1.900       .  S
O2229      C2239   1.264       .  A
O2231      C2240   1.263       .  A
O2232      V2236   1.900   1_554  S
O2233      V2236   1.898       .  S
O2233      C2238   1.266       .  A
O2234      C2237   1.264       .  A
C2237      C2289   1.474       .  S
C2238      C2304   1.489       .  S
C2239      C2256   1.473       .  S
C2240      C2244   1.472       .  S
C2241      C2246   1.412       .  A
C2242      C2243   1.400       .  A
C2242      H2251   1.084       .  S
C2243      S2247   1.804       .  S
C2244      C2245   1.402       .  A
C2245      C2246   1.400       .  A
C2245      H2252   1.084       .  S
C2246      S2248   1.803       .  S
S2247      H2250   1.406       .  S
S2248      H2249   1.406       .  S
C2253      C2254   1.402       .  A
C2254      C2255   1.399       .  A
C2254      H2263   1.083       .  S
C2255      C2256   1.412       .  A
C2255      S2259   1.804       .  S
C2257      C2258   1.400       .  A
C2257      H2264   1.085       .  S
C2258      S2260   1.803       .  S
S2259      H2262   1.406       .  S
S2260      H2261   1.406       .  S
C2265      C2266   1.402   1_545  A
C2266      C2267   1.397       .  A
C2266      H2275   1.084       .  S
C2267      C2268   1.412   1_565  A
C2267      S2271   1.804       .  S
C2269      C2270   1.399       .  A
C2269      H2276   1.084       .  S
C2270      S2272   1.803       .  S
S2271      H2274   1.407       .  S
S2272      H2273   1.406       .  S
C2278      C2279   1.398       .  A
C2278      H2287   1.084       .  S
C2279      S2283   1.805       .  S
C2281      C2282   1.399       .  A
C2281      H2288   1.084       .  S
C2282      S2284   1.799       .  S
S2283      H2286   1.404       .  S
S2284      H2285   1.407       .  S
C2289      C2290   1.402       .  A
C2289      C2294   1.413       .  A
C2290      C2291   1.398       .  A
C2290      H2299   1.084       .  S
C2291      C2292   1.415       .  A
C2291      S2295   1.804       .  S
C2292      C2293   1.403       .  A
C2293      C2294   1.399       .  A
C2293      H2300   1.084       .  S
C2294      S2296   1.803       .  S
S2295      H2298   1.404       .  S
S2296      H2297   1.407       .  S
C2301      C2302   1.399       .  A
C2301      C2306   1.410       .  A
C2302      C2303   1.399       .  A
C2302      H2311   1.084       .  S
C2303      C2304   1.420       .  A
C2303      S2307   1.801       .  S
C2304      C2305   1.408       .  A
C2305      C2306   1.399       .  A
C2305      H2312   1.083       .  S
C2306      S2308   1.806       .  S
S2307      H2310   1.408       .  S
S2308      H2309   1.401       .  S
C2313      C2318   1.414       .  A
C2314      C2315   1.399       .  A
C2314      H2323   1.083       .  S
C2315      S2319   1.803       .  S
C2316      C2317   1.403   1_545  A
C2317      C2318   1.400       .  A
C2317      H2324   1.083       .  S
C2318      S2320   1.803       .  S
S2319      H2322   1.407       .  S
S2320      H2321   1.407       .  S
C2325      C2326   1.406   1_565  A
C2325      C2330   1.418       .  A
C2326      C2327   1.398       .  A
C2326      H2335   1.084       .  S
C2327      C2328   1.409   1_545  A
C2328      C2329   1.400       .  A
C2329      C2330   1.399       .  A
C2337      C2338   1.402       .  A
C2337      C2342   1.413       .  A
C2338      C2339   1.399       .  A
C2338      H2347   1.084       .  S
C2339      C2340   1.415       .  A
C2339      S2343   1.804       .  S
C2340      C2341   1.402       .  A
C2341      C2342   1.397       .  A
C2341      H2348   1.084       .  S
C2342      S2344   1.804       .  S
S2343      H2346   1.404       .  S
S2344      H2345   1.407       .  S
C2349      C2350   1.403       .  A
C2349      C2354   1.412       .  A
C2350      C2351   1.400       .  A
C2350      H2359   1.084       .  S
C2351      C2352   1.413       .  A
C2351      S2355   1.803       .  S
C2352      C2353   1.402       .  A
C2353      C2354   1.397       .  A
C2353      H2360   1.084       .  S
C2354      S2356   1.804       .  S
S2355      H2358   1.407       .  S
S2356      H2357   1.407       .  S
C2361      C2362   1.405   1_455  A
C2362      C2363   1.400       .  A
C2362      H2371   1.084       .  S
C2363      C2364   1.412   1_655  A
C2363      S2367   1.803       .  S
C2365      C2366   1.398       .  A
C2365      H2372   1.084       .  S
C2366      S2368   1.802       .  S
S2367      H2370   1.406       .  S
S2368      H2369   1.403       .  S
C2373      C2374   1.404       .  A
C2374      C2375   1.399       .  A
C2374      H2383   1.084       .  S
C2375      C2376   1.412       .  A
C2375      S2379   1.803       .  S
C2377      C2378   1.399       .  A
C2377      H2384   1.084       .  S
C2378      S2380   1.803       .  S
S2379      H2382   1.406       .  S
S2380      H2381   1.405       .  S
C2386      C2387   1.400       .  A
C2386      H2395   1.084       .  S
C2387      S2391   1.803       .  S
C2389      C2390   1.398       .  A
C2389      H2396   1.083       .  S
C2390      S2392   1.805       .  S
S2391      H2394   1.403       .  S
S2392      H2393   1.403       .  S
C2397      C2402   1.418       .  A
C2398      C2399   1.398       .  A
C2398      H2407   1.083       .  S
C2399      S2403   1.804       .  S
C2400      C2401   1.401       .  A
C2401      C2402   1.400       .  A
C2401      H2408   1.084       .  S
C2402      S2404   1.803       .  S
S2403      H2406   1.405       .  S
S2404      H2405   1.404       .  S
C2409      C2410   1.402   1_455  A
C2410      C2411   1.399       .  A
C2410      H2419   1.084       .  S
C2411      C2412   1.412   1_655  A
C2411      S2415   1.803       .  S
C2413      C2414   1.400       .  A
C2413      H2420   1.084       .  S
C2414      S2416   1.801       .  S
S2415      H2418   1.406       .  S
S2416      H2417   1.406       .  S
C2421      C2422   1.402       .  A
C2422      C2423   1.399       .  A
C2422      H2431   1.084   1_655  S
C2423      C2424   1.411       .  A
C2423      S2427   1.802       .  S
C2425      C2426   1.400       .  A
C2425      H2432   1.084       .  S
C2426      S2428   1.804       .  S
S2427      H2430   1.404       .  S
S2428      H2429   1.403       .  S
