geometry optimzed in LAMMPS
_audit_creation_date              2020-11-30 
_audit_creation_method            'lammps2cif' 
_symmetry_space_group_name_H-M    'P1' 
_symmetry_Int_Tables_number       1 
_symmetry_cell_setting            triclinic 
loop_ 
_symmetry_equiv_pos_as_xyz 
  x,y,z 
_cell_length_a                    48.90068083 
_cell_length_b                    48.35778567822976 
_cell_length_c                    39.95228189191653 
_cell_angle_alpha                 90.0547269430022 
_cell_angle_beta                  90.15656805383277 
_cell_angle_gamma                 120.38015955569551 
loop_ 
_atom_site_label 
_atom_site_type_symbol 
_atom_site_fract_x 
_atom_site_fract_y 
_atom_site_fract_z 
_atom_site_charge 
C1          C  0.33410323  0.16625322  0.29181104     0.46500
H2          H  0.33341485  0.16667812  0.31949347    -0.02600
C3          C  0.33545861  0.16463349  0.22681222     0.46500
H4          H  0.33605654  0.16401647  0.19918547    -0.02600
C5          C  0.33249251  0.19420963  0.27500569    -0.16300
C6          C  0.36447521  0.16774137  0.27801639    -0.16000
C7          C  0.30597423  0.13568009  0.27671606    -0.16400
C8          C  0.33525258  0.19447376  0.24059642    -0.16400
C9          C  0.36468304  0.16563894  0.24341910    -0.15900
C10         C  0.30568078  0.13521815  0.24205390    -0.16300
C11         C  0.16788774  0.33318151  0.20932542     0.46500
H12         H  0.16828352  0.33156120  0.18178944    -0.02600
C13         C  0.16595949  0.33431655  0.27421714     0.46500
H14         H  0.16459976  0.33507824  0.30163764    -0.02600
C15         C  0.14058549  0.30187780  0.22395354    -0.16300
C16         C  0.19891809  0.33834713  0.22634639    -0.16000
C17         C  0.16263076  0.36039012  0.22304510    -0.16400
C18         C  0.13934140  0.30235258  0.25840448    -0.16400
C19         C  0.19802193  0.33947658  0.26125549    -0.15900
C20         C  0.16296975  0.36157592  0.25783983    -0.16300
C21         C  0.35073670  0.34567324  0.14044595     0.81200
N22         N  0.35396957  0.32109027  0.15220503    -0.77100
C23         C  0.33200923  0.29915068  0.17339815     0.83700
N24         N  0.30707372  0.30210261  0.18339381    -0.77000
C25         C  0.30369668  0.32668863  0.17208603     0.83800
N26         N  0.32550690  0.34821971  0.15041685    -0.78700
C27         C  0.35114469  0.35410582  0.35320694     0.81200
N28         N  0.32825975  0.36000871  0.34194308    -0.77100
C29         C  0.30353777  0.33737537  0.32359309     0.83700
N30         N  0.30180023  0.30903344  0.31714697    -0.77000
C31         C  0.32455725  0.30278444  0.32757328     0.83800
N32         N  0.34922684  0.32568684  0.34573551    -0.78700
C33         C  0.14996901  0.49751564  0.36510781     0.81200
N34         N  0.17861372  0.02504639  0.36027672    -0.77100
C35         C  0.20172728  0.02467134  0.34173200     0.83700
N36         N  0.19525712  0.99659126  0.32787318    -0.77000
C37         C  0.16692592  0.46918124  0.33096035     0.83800
N38         N  0.14414164  0.46963592  0.34999421    -0.78700
C39         C  0.15282039  0.50442378  0.13654368     0.81200
N40         N  0.17844924  0.03167152  0.14887493    -0.77100
C41         C  0.20028255  0.02957382  0.16852121     0.83700
N42         N  0.19612443  0.50022969  0.17590324    -0.77000
C43         C  0.17040173  0.47318352  0.16425789     0.83800
N44         N  0.14886566  0.47542900  0.14492318    -0.78700
C45         C  0.99512001  0.14666317  0.13863936     0.81200
N46         N  0.02393244  0.17194335  0.14721392    -0.77100
C47         C  0.02624467  0.19542593  0.16771957     0.83700
N48         N  0.99951997  0.19353710  0.18003495    -0.77000
C49         C  0.47063956  0.16825059  0.17212952     0.83800
N50         N  0.46841121  0.14473986  0.15146977    -0.78700
C51         C  0.50355613  0.15741724  0.36958508     0.81200
N52         N  0.03045649  0.17883159  0.35292909    -0.77100
C53         C  0.03048972  0.20165705  0.33292167     0.83700
N54         N  0.50343810  0.20267466  0.33031520    -0.77000
C55         C  0.47621279  0.18162734  0.34587868     0.83800
N56         N  0.47648075  0.15874003  0.36543764    -0.78700
Fe57       Fe  0.49895123  0.45686092  0.99981768     1.65800
Fe58       Fe  0.45710702  0.49627888  0.99834529     1.73200
Fe59       Fe  0.03823205  0.03901631  0.00016264     1.54400
O60         O  0.05762987  0.02606216  0.03885920    -0.80700
O61         O  0.47227683  0.03432626  0.46537519    -0.79000
O62         O  0.03506778  0.47298772  0.03507254    -0.83200
O63         O  0.03190005  0.47138427  0.46160555    -0.78000
O64         O  0.02151178  0.05871766  0.03487588    -0.79800
O65         O  0.44087008  0.46508092  0.45793728    -0.82600
C66         C  0.05536822  0.99839768  0.45326675     0.98200
C67         C  0.05571602  0.49986261  0.04732309     1.05700
O68         O  0.49813334  0.49740324  0.99950225    -1.11500
O69         O  0.43527608  0.45824394  0.03163420    -0.74000
O70         O  0.46613478  0.43708172  0.03815157    -0.77500
O71         O  0.06016656  0.02475277  0.46554893    -0.78100
C72         C  0.44147453  0.43831806  0.04532288     0.97100
O73         O  0.46314798  0.43492284  0.46428669    -0.76100
O74         O  0.46881233  0.02764185  0.03827031    -0.81300
C75         C  0.49857424  0.05587246  0.45351665     0.99700
C76         C  0.99491434  0.05233624  0.04697625     1.05700
O77         O  0.02484367  0.05819043  0.46148794    -0.76900
C78         C  0.44364819  0.44117157  0.44999902     1.04000
C79         C  0.50307314  0.13176808  0.39119198    -0.04300
C80         C  0.01715786  0.11386493  0.38028459    -0.01500
C81         C  0.01558335  0.08898830  0.40042991     0.03500
C82         C  0.49896279  0.08084122  0.43112675    -0.04300
C83         C  0.48449311  0.09836353  0.44174690    -0.01400
C84         C  0.48743455  0.12424933  0.42250205     0.03500
C85         C  0.03256951  0.12030056  0.34794560     0.38200
C86         C  0.46725944  0.09048177  0.47313891     0.38200
C87         C  0.47598312  0.14437158  0.43611039     0.36600
C88         C  0.03020992  0.07099483  0.38906433     0.36600
N89         N  0.46717400  0.16058636  0.44722777    -0.38200
N90         N  0.04186889  0.05659424  0.38012883    -0.38200
N91         N  0.45331127  0.08411400  0.49801800    -0.37700
N92         N  0.04487745  0.12542140  0.32214121    -0.37700
C93         C  0.99427246  0.07595421  0.07070060    -0.04300
C94         C  0.47513161  0.06586651  0.09977501    -0.01500
C95         C  0.47467973  0.08876118  0.12160392     0.03500
C96         C  0.99337838  0.12198521  0.11469244    -0.04300
C97         C  0.01152599  0.13186967  0.08497951    -0.01400
C98         C  0.01198192  0.10911693  0.06320618     0.03500
C99         C  0.45668456  0.03202477  0.10788373     0.38200
C100        C  0.02887077  0.16555289  0.07587546     0.38200
C101        C  0.02973996  0.12002128  0.03218086     0.36600
C102        C  0.45553234  0.07794939  0.15162164     0.36600
N103        N  0.04380075  0.12869928  0.00742392    -0.38200
N104        N  0.43997621  0.06892976  0.17537489    -0.38200
N105        N  0.04266596  0.19236110  0.06850717    -0.37700
N106        N  0.44192788  0.00503129  0.11433338    -0.37700
C107        C  0.12934469  0.50534105  0.11311094    -0.04300
C108        C  0.11397808  0.02270126  0.12091950    -0.01500
C109        C  0.08943746  0.02039054  0.09997956     0.03500
C110        C  0.08015595  0.50098320  0.07082397    -0.04300
C111        C  0.09605383  0.48420819  0.06272229    -0.01400
C112        C  0.12035880  0.48635227  0.08365657     0.03500
C113        C  0.12254364  0.04223869  0.15089908     0.38200
C114        C  0.08838671  0.46557481  0.03201731     0.38200
C115        C  0.13677628  0.46952253  0.07417815     0.36600
C116        C  0.07289794  0.03712701  0.10912503     0.36600
N117        N  0.14980776  0.45605342  0.06671282    -0.38200
N118        N  0.05961260  0.05038578  0.11640530    -0.38200
N119        N  0.08237067  0.45074120  0.00755671    -0.37700
N120        N  0.12903350  0.05812857  0.17459942    -0.37700
C121        C  0.12548766  0.49808851  0.38710601    -0.04300
C122        C  0.13458895  0.01474296  0.41802930    -0.01500
C123        C  0.11177660  0.01560587  0.43889967     0.03500
C124        C  0.07934747  0.99911415  0.42968410    -0.04300
C125        C  0.07008129  0.48216667  0.39902782    -0.01400
C126        C  0.09305577  0.48204229  0.37760868     0.03500
C127        C  0.16718958  0.02952388  0.42959258     0.38200
C128        C  0.03694217  0.46532356  0.38916072     0.38200
C129        C  0.08321948  0.46601516  0.34540523     0.36600
C130        C  0.12169732  0.03234722  0.47078456     0.36600
N131        N  0.07530065  0.45323009  0.31971905    -0.38200
N132        N  0.12966638  0.04573596  0.49615275    -0.38200
N133        N  0.01048446  0.45177326  0.38139320    -0.37700
N134        N  0.19313885  0.04120375  0.43890194    -0.37700
C135        C  0.42186678  0.41856341  0.42411325    -0.04300
C136        C  0.39992947  0.38654242  0.43298121    -0.01500
C137        C  0.37623541  0.36609848  0.41010924     0.03500
C138        C  0.37581031  0.37650545  0.37717327    -0.04300
C139        C  0.39894654  0.40790500  0.36761296    -0.01400
C140        C  0.42146312  0.42910806  0.39123939     0.03500
C141        C  0.40136158  0.37460171  0.46586619     0.38200
C142        C  0.40028768  0.41811514  0.33327937     0.38200
C143        C  0.44492712  0.46145857  0.38147137     0.36600
C144        C  0.35113177  0.33491977  0.42115799     0.36600
N145        N  0.46376421  0.48725284  0.37375206    -0.38200
N146        N  0.33087702  0.31021647  0.43002386    -0.38200
N147        N  0.40191011  0.42642976  0.30584202    -0.37700
N148        N  0.40267573  0.36482097  0.99187974    -0.37700
C149        C  0.41837145  0.41492697  0.07005916    -0.04300
C150        C  0.42900033  0.40842436  0.10042945    -0.01500
C151        C  0.40706177  0.38575337  0.12331342     0.03500
C152        C  0.37415994  0.36929997  0.11622980    -0.04300
C153        C  0.36354646  0.37562062  0.08579825    -0.01400
C154        C  0.38540833  0.39828982  0.06294902     0.03500
C155        C  0.46251220  0.42587653  0.10880306     0.38200
C156        C  0.33008257  0.35771849  0.07721213     0.38200
C157        C  0.37380808  0.40342291  0.03143912     0.36600
C158        C  0.41853927  0.38019237  0.15461733     0.36600
N159        N  0.36444487  0.40733307  0.50629822    -0.38200
N160        N  0.42821667  0.37610684  0.17943188    -0.38200
N161        N  0.30340771  0.34333012  0.07039105    -0.37700
N162        N  0.48923059  0.43981824  0.11549406    -0.37700
C163        C  0.15840490  0.38379752  0.20106297    -0.04300
C164        C  0.17874497  0.39949204  0.17335764    -0.01500
C165        C  0.18184697  0.42822815  0.16052872     0.03500
C166        C  0.16449626  0.44124282  0.17460377    -0.04300
C167        C  0.14092531  0.42343910  0.19831443    -0.01400
C168        C  0.13681485  0.39414888  0.21033138     0.03500
C169        C  0.19706208  0.38711379  0.15781266     0.38200
C170        C  0.12208961  0.43631306  0.21192700     0.38200
C171        C  0.11094936  0.37604160  0.23330455     0.36600
C172        C  0.20320655  0.44477755  0.13297186     0.36600
N173        N  0.09023331  0.36367061  0.25207523    -0.38200
N174        N  0.22004367  0.45796157  0.11085788    -0.38200
N175        N  0.10732122  0.44673581  0.22296586    -0.37700
N176        N  0.21136394  0.37751039  0.14399115    -0.37700
C177        C  0.16419647  0.38871272  0.27852872    -0.04300
C178        C  0.14374154  0.38275244  0.30635668    -0.01500
C179        C  0.14351510  0.40852955  0.32343343     0.03500
C180        C  0.16227590  0.44035337  0.31179675    -0.04300
C181        C  0.18023961  0.44555070  0.28242319    -0.01400
C182        C  0.18414775  0.42105836  0.26883937     0.03500
C183        C  0.12204173  0.35027024  0.31718397     0.38200
C184        C  0.19394427  0.47601724  0.26473848     0.38200
C185        C  0.20908729  0.43057407  0.24458372     0.36600
C186        C  0.12345522  0.40202875  0.35245585     0.36600
N187        N  0.22917353  0.44128589  0.22506557    -0.38200
N188        N  0.10722065  0.39675710  0.37546027    -0.38200
N189        N  0.20493629  0.50023749  0.25075154    -0.37700
N190        N  0.10453151  0.32464840  0.32658081    -0.37700
C191        C  0.22495013  0.34455225  0.28471063    -0.04300
C192        C  0.25619171  0.37019113  0.28025300    -0.01500
C193        C  0.28223386  0.36783329  0.29196030     0.03500
C194        C  0.27701222  0.34193316  0.31248154    -0.04300
C195        C  0.24594881  0.32101506  0.32399685    -0.01400
C196        C  0.22047903  0.32438159  0.31233976     0.02600
C197        C  0.26114350  0.40178946  0.27420078     0.38200
C198        C  0.24033618  0.29711091  0.34916735     0.38200
C199        C  0.19401831  0.31484865  0.33471116     0.36600
C200        C  0.31409699  0.39206202  0.28268655     0.36600
N201        N  0.17376977  0.30788267  0.35377713    -0.38200
N202        N  0.33939224  0.41152220  0.27489288    -0.38200
N203        N  0.23588039  0.27797012  0.36913869    -0.37700
N204        N  0.26649043  0.42787354  0.27160712    -0.37700
C205        C  0.22494760  0.33707970  0.20672085    -0.04300
C206        C  0.21950318  0.30807583  0.19203609    -0.01500
C207        C  0.24517260  0.30402575  0.18268874     0.03500
C208        C  0.27654959  0.33026131  0.18361484    -0.04300
C209        C  0.28140142  0.36062984  0.19269548    -0.01400
C210        C  0.25556383  0.36418429  0.20241449     0.03500
C211        C  0.18864956  0.28566318  0.17854504     0.38200
C212        C  0.31309352  0.38858908  0.19210639     0.38200
C213        C  0.26007245  0.39596284  0.20057130     0.36600
C214        C  0.23879716  0.27311781  0.17022172     0.36600
N215        N  0.26646409  0.42220915  0.19647004    -0.38200
N216        N  0.23336278  0.24829358  0.16048620    -0.38200
N217        N  0.33830899  0.41090113  0.19154963    -0.37700
N218        N  0.16552064  0.26835558  0.16439140    -0.37700
C219        C  0.11198322  0.27620244  0.27814095    -0.04300
C220        C  0.11618995  0.25610546  0.30090059    -0.01500
C221        C  0.09044030  0.23309559  0.32040275     0.03500
C222        C  0.05898210  0.22532864  0.31283155    -0.04300
C223        C  0.05462355  0.24123715  0.28528552    -0.01400
C224        C  0.08051458  0.26866408  0.27132340     0.03500
C225        C  0.14538795  0.25539022  0.30129109     0.38200
C226        C  0.02406899  0.22784117  0.26852797     0.38200
C227        C  0.07372436  0.28784588  0.24878282     0.36600
C228        C  0.09677899  0.21719660  0.34751846     0.36600
N229        N  0.06618482  0.30127001  0.23043851    -0.38200
N230        N  0.10214901  0.20477962  0.36921154    -0.38200
N231        N  0.00002722  0.21708182  0.25459449    -0.37700
N232        N  0.16772022  0.25288987  0.30156634    -0.37700
C233        C  0.11562237  0.27452026  0.20272224    -0.04300
C234        C  0.09731833  0.27967132  0.17846326    -0.01500
C235        C  0.06821733  0.25372563  0.16679147     0.03500
C236        C  0.05784080  0.22231966  0.17781589    -0.04300
C237        C  0.07794476  0.21655530  0.19817899    -0.01400
C238        C  0.10708560  0.24234091  0.20960846     0.03500
C239        C  0.10730941  0.31126643  0.16545769     0.38200
C240        C  0.06818627  0.18404066  0.20827873     0.38200
C241        C  0.12967260  0.23525015  0.22490636     0.36600
C242        C  0.04867163  0.25935502  0.14355513     0.36600
N243        N  0.14772045  0.22843914  0.23486807    -0.38200
N244        N  0.03311898  0.26386981  0.12502634    -0.38200
N245        N  0.06028112  0.15809811  0.21638863    -0.37700
N246        N  0.11395311  0.33554008  0.15324890    -0.37700
C247        C  0.39204580  0.17389643  0.30050880    -0.04300
C248        C  0.38835757  0.15288619  0.32718667    -0.01500
C249        C  0.41535805  0.15558254  0.34383148     0.03500
C250        C  0.44609395  0.18161118  0.33675872    -0.04300
C251        C  0.44803640  0.20662430  0.31655904    -0.01400
C252        C  0.42240972  0.20129177  0.29590414     0.03500
C253        C  0.35720154  0.12717209  0.33656728     0.38200
C254        C  0.47583041  0.23858018  0.31792013     0.38200
C255        C  0.42859171  0.22389198  0.26921175     0.36600
C256        C  0.41100247  0.13152462  0.36823960     0.36600
N257        N  0.43564173  0.24213971  0.24760630    -0.38200
N258        N  0.40725084  0.11222504  0.38772839    -0.38200
N259        N  0.49776578  0.26415460  0.31915200    -0.37700
N260        N  0.33289467  0.10645151  0.34531782    -0.37700
C261        C  0.39059126  0.16466131  0.22323157    -0.04300
C262        C  0.40473421  0.18501445  0.19503107    -0.01500
C263        C  0.42978890  0.18492814  0.17737556     0.03500
C264        C  0.44195012  0.16555140  0.18806323    -0.04300
C265        C  0.42797362  0.14502536  0.21550236    -0.01400
C266        C  0.40169398  0.14347664  0.23200958     0.03500
C267        C  0.39525510  0.20757038  0.18443838     0.38200
C268        C  0.44159706  0.12631872  0.22771329     0.38200
C269        C  0.38588886  0.11887926  0.25707392     0.36600
C270        C  0.44334109  0.20505626  0.14809372     0.36600
N271        N  0.37463670  0.09869055  0.27680709    -0.38200
N272        N  0.45394922  0.22093756  0.12462144    -0.38200
N273        N  0.45274516  0.11178206  0.23774830    -0.37700
N274        N  0.38912675  0.22627851  0.17457926    -0.37700
C275        C  0.33594049  0.27294177  0.18707765    -0.04300
C276        C  0.31744135  0.24140998  0.17485338    -0.01500
C277        C  0.31855547  0.21580881  0.19064187     0.03500
C278        C  0.33848219  0.22170467  0.21893222    -0.04300
C279        C  0.35965322  0.25416815  0.22835325    -0.01400
C280        C  0.35730397  0.27929942  0.21350888     0.03500
C281        C  0.29661215  0.23525875  0.14640183     0.38200
C282        C  0.38373505  0.26253505  0.25382997     0.38200
C283        C  0.37550852  0.31156595  0.22704811     0.36600
C284        C  0.29753286  0.18350257  0.17864993     0.36600
N285        N  0.38972148  0.33703161  0.23846143    -0.38200
N286        N  0.28039925  0.15809146  0.16830227    -0.38200
N287        N  0.40305255  0.27112867  0.27439667    -0.37700
N288        N  0.28009315  0.23036950  0.12362252    -0.37700
C289        C  0.32582011  0.21741750  0.29375744    -0.04300
C290        C  0.34428877  0.23506128  0.32167158    -0.01500
C291        C  0.34208584  0.26123485  0.33445568     0.03500
C292        C  0.32267998  0.27145660  0.31834612    -0.04300
C293        C  0.30174324  0.25142200  0.29267153    -0.01400
C294        C  0.30231969  0.22394656  0.28189032     0.03500
C295        C  0.36706064  0.22780751  0.33644460     0.38200
C296        C  0.27984861  0.25890419  0.27583852     0.38200
C297        C  0.27865879  0.20302651  0.25771508     0.36600
C298        C  0.35978522  0.27702053  0.36457859     0.36600
N299        N  0.25946710  0.18806118  0.23792273    -0.38200
N300        N  0.37399995  0.28905185  0.38873583    -0.38200
N301        N  0.26229541  0.26447241  0.26212479    -0.37700
N302        N  0.38542309  0.22263263  0.34883206    -0.37700
C303        C  0.23254227  0.05453650  0.33239430    -0.04300
C304        C  0.25561870  0.05158239  0.31353306    -0.01500
C305        C  0.27829971  0.07744629  0.29437339     0.03500
C306        C  0.28251684  0.10838015  0.29836659    -0.04300
C307        C  0.26445133  0.11283451  0.32330280    -0.01400
C308        C  0.23838470  0.08597359  0.33862112     0.03500
C309        C  0.25734752  0.02244931  0.31452673     0.38200
C310        C  0.27087843  0.14468446  0.33198141     0.38200
C311        C  0.21770964  0.09124049  0.36031467     0.36600
C312        C  0.29727555  0.07164622  0.27069926     0.36600
N313        N  0.20137260  0.09584303  0.37746652    -0.38200
N314        N  0.31118070  0.06566174  0.25147405    -0.38200
N315        N  0.27503941  0.16951932  0.33999742    -0.37700
N316        N  0.25906211  0.99944209  0.31530651    -0.37700
C317        C  0.27852344  0.10972252  0.22093805    -0.04300
C318        C  0.28432598  0.09449634  0.19360153    -0.01500
C319        C  0.25877886  0.06946576  0.17539295     0.03500
C320        C  0.22710017  0.05860623  0.18452649    -0.04300
C321        C  0.22111205  0.07374896  0.21119650    -0.01400
C322        C  0.24633904  0.09995886  0.22813945     0.03500
C323        C  0.31639439  0.10344562  0.18440388     0.38200
C324        C  0.18881313  0.06100480  0.22280608     0.38200
C325        C  0.23802688  0.11686737  0.25215045     0.36600
C326        C  0.26504339  0.05455756  0.14722087     0.36600
N327        N  0.22902864  0.12867595  0.27093741    -0.38200
N328        N  0.27000276  0.54265996  0.12465437    -0.38200
N329        N  0.16328643  0.05065942  0.23278055    -0.37700
N330        N  0.34166981  0.11001869  0.17628846    -0.37700
C331        C  0.33410646  0.16625562  0.79181356     0.46500
H332        H  0.33341913  0.16668164  0.81949615    -0.02600
C333        C  0.33545994  0.16463413  0.72681489     0.46500
H334        H  0.33605710  0.16401637  0.69918806    -0.02600
C335        C  0.33249498  0.19421146  0.77500777    -0.16300
C336        C  0.36447800  0.16774335  0.77801825    -0.16000
C337        C  0.30597724  0.13568192  0.77671962    -0.16400
C338        C  0.33525355  0.19447425  0.74059846    -0.16400
C339        C  0.36468493  0.16564048  0.74342094    -0.15900
C340        C  0.30568308  0.13521892  0.74205743    -0.16300
C341        C  0.16788184  0.33317788  0.70931628     0.46500
H342        H  0.16827647  0.33155533  0.68178093    -0.02600
C343        C  0.16595569  0.33431554  0.77420870     0.46500
H344        H  0.16459640  0.33507839  0.80162853    -0.02600
C345        C  0.14058072  0.30187458  0.72394605    -0.16300
C346        C  0.19891273  0.33834470  0.72633696    -0.16000
C347        C  0.16262448  0.36038669  0.72303533    -0.16400
C348        C  0.13933805  0.30235059  0.75839695    -0.16400
C349        C  0.19801798  0.33947552  0.76124600    -0.15900
C350        C  0.16296442  0.36157378  0.75783014    -0.16300
C351        C  0.35073311  0.34566847  0.64044449     0.81200
N352        N  0.35396568  0.32108571  0.65220446    -0.77100
C353        C  0.33200531  0.29914697  0.67339801     0.83700
N354        N  0.30707047  0.30209991  0.68339383    -0.77000
C355        C  0.30369325  0.32668549  0.67208483     0.83800
N356        N  0.32550329  0.34821536  0.65041450    -0.78700
C357        C  0.35113792  0.35410487  0.85320975     0.81200
N358        N  0.32825486  0.36000849  0.84194075    -0.77100
C359        C  0.30353493  0.33737553  0.82358805     0.83700
N360        N  0.30179775  0.30903339  0.81714391    -0.77000
C361        C  0.32455225  0.30278292  0.82757609     0.83800
N362        N  0.34921982  0.32568515  0.84574100    -0.78700
C363        C  0.14996252  0.49751415  0.86509884     0.81200
N364        N  0.17861285  0.02504789  0.86027228    -0.77100
C365        C  0.20172649  0.02467385  0.84172690     0.83700
N366        N  0.19525579  0.99659523  0.82786390    -0.77000
C367        C  0.16691663  0.46917859  0.83094904     0.83800
N368        N  0.14413261  0.46963458  0.84998249    -0.78700
C369        C  0.15283067  0.50442927  0.63653554     0.81200
N370        N  0.17845565  0.03167706  0.64887242    -0.77100
C371        C  0.20028786  0.02957749  0.66851868     0.83700
N372        N  0.19612828  0.50022846  0.67589927    -0.77000
C373        C  0.17040450  0.47318416  0.66425238     0.83800
N374        N  0.14887158  0.47543298  0.64491581    -0.78700
C375        C  0.99511441  0.14665899  0.63863714     0.81200
N376        N  0.02392659  0.17193964  0.64721088    -0.77100
C377        C  0.02623841  0.19542210  0.66771614     0.83700
N378        N  0.99951369  0.19353267  0.68003195    -0.77000
C379        C  0.47063501  0.16824988  0.67212224     0.83800
N380        N  0.46840645  0.14473902  0.65146282    -0.78700
C381        C  0.50355935  0.15742218  0.86959065     0.81200
N382        N  0.03045956  0.17882816  0.85292389    -0.77100
C383        C  0.03049267  0.20165315  0.83291599     0.83700
N384        N  0.50344047  0.20267811  0.83031950    -0.77000
C385        C  0.47621541  0.18163113  0.84588344     0.83800
N386        N  0.47648380  0.15874464  0.86544344    -0.78700
Fe387      Fe  0.49895212  0.45685803  0.49982075     1.65800
Fe388      Fe  0.45710449  0.49627243  0.49834370     1.73200
Fe389      Fe  0.03823065  0.03901786  0.50016225     1.54400
O390        O  0.05763359  0.02606731  0.53885661    -0.80700
O391        O  0.47227936  0.03433207  0.96537936    -0.79000
O392        O  0.03506987  0.47298809  0.53508045    -0.83200
O393        O  0.03189603  0.47139006  0.96159612    -0.78000
O394        O  0.02151064  0.05871753  0.53487699    -0.79800
O395        O  0.44086930  0.46508728  0.95793794    -0.82600
C396        C  0.05536865  0.99839686  0.95326338     0.98200
C397        C  0.05572042  0.49986520  0.54732464     1.05700
O398        O  0.49813196  0.49739914  0.49950240    -1.11500
O399        O  0.43527385  0.45823755  0.53163289    -0.74000
O400        O  0.46613440  0.43707789  0.53815346    -0.77500
O401        O  0.06016995  0.02475107  0.96555126    -0.78100
C402        C  0.44147300  0.43831270  0.54532286     0.97100
O403        O  0.46314503  0.43492706  0.96428507    -0.76100
O404        O  0.46880956  0.02764072  0.53826648    -0.81300
C405        C  0.49857717  0.05587772  0.95352095     0.99700
C406        C  0.99491276  0.05233566  0.54697638     1.05700
O407        O  0.02484787  0.05819004  0.96148671    -0.76900
C408        C  0.44364512  0.44117661  0.94999896     1.04000
C409        C  0.50307670  0.13177355  0.89119746    -0.04300
C410        C  0.01715480  0.11385910  0.88027926    -0.01500
C411        C  0.01558174  0.08898400  0.90042597     0.03500
C412        C  0.49896644  0.08084736  0.93113239    -0.04300
C413        C  0.48450462  0.09837580  0.94175719    -0.01400
C414        C  0.48744597  0.12426119  0.92251170     0.03500
C415        C  0.03255612  0.12028658  0.84793494     0.38200
C416        C  0.46727849  0.09050000  0.97315371     0.38200
C417        C  0.47600228  0.14438911  0.93612253     0.36600
C418        C  0.03020127  0.07098480  0.88905733     0.36600
N419        N  0.46719955  0.16060857  0.94724170    -0.38200
N420        N  0.04185466  0.05657967  0.88011933    -0.38200
N421        N  0.45333618  0.08413718  0.99803638    -0.37700
N422        N  0.04485536  0.12540078  0.82212605    -0.37700
C423        C  0.99426996  0.07595257  0.57070018    -0.04300
C424        C  0.47512692  0.06586573  0.59976935    -0.01500
C425        C  0.47467483  0.08876044  0.62159781     0.03500
C426        C  0.99337326  0.12198170  0.61469072    -0.04300
C427        C  0.01151903  0.13186687  0.58497668    -0.01400
C428        C  0.01197613  0.10911482  0.56320373     0.03500
C429        C  0.45667935  0.03202392  0.60787787     0.38200
C430        C  0.02886054  0.16554983  0.57587130     0.38200
C431        C  0.02973177  0.12001901  0.53217694     0.36600
C432        C  0.45552683  0.07794857  0.65161510     0.36600
N433        N  0.04379076  0.12869677  0.50741892    -0.38200
N434        N  0.43996970  0.06892822  0.67536759    -0.38200
N435        N  0.04265309  0.19235784  0.56850200    -0.37700
N436        N  0.44192193  0.00503036  0.61432700    -0.37700
C437        C  0.12935733  0.50534977  0.61310241    -0.04300
C438        C  0.11398853  0.02271371  0.62091541    -0.01500
C439        C  0.08944737  0.02040339  0.59997666     0.03500
C440        C  0.08016460  0.50098987  0.57082154    -0.04300
C441        C  0.09605896  0.48421131  0.56271994    -0.01400
C442        C  0.12036561  0.48635602  0.58365151     0.03500
C443        C  0.12255880  0.04225509  0.65089242     0.38200
C444        C  0.08838746  0.46557459  0.53201687     0.38200
C445        C  0.13677912  0.46952212  0.57417351     0.36600
C446        C  0.07291294  0.03714560  0.60911973     0.36600
N447        N  0.14980754  0.45604983  0.56670853    -0.38200
N448        N  0.05963186  0.05040925  0.61639784    -0.38200
N449        N  0.08236853  0.45073879  0.50755756    -0.37700
N450        N  0.12905287  0.05814810  0.67459075    -0.37700
C451        C  0.12548221  0.49808857  0.88709790    -0.04300
C452        C  0.13458721  0.01473351  0.91802802    -0.01500
C453        C  0.11177579  0.01559684  0.93889955     0.03500
C454        C  0.07934765  0.99911356  0.92968018    -0.04300
C455        C  0.07007839  0.48217931  0.89901679    -0.01400
C456        C  0.09305144  0.48205208  0.87759725     0.03500
C457        C  0.16718592  0.02950317  0.92959489     0.38200
C458        C  0.03694037  0.46534696  0.88914572     0.38200
C459        C  0.08321516  0.46603160  0.84539053     0.36600
C460        C  0.12169611  0.03232979  0.97078892     0.36600
N461        N  0.07529637  0.45325182  0.81970170    -0.38200
N462        N  0.12966509  0.04571199  0.99616063    -0.38200
N463        N  0.01048351  0.45180576  0.88137489    -0.37700
N464        N  0.19313363  0.04117346  0.93890689    -0.37700
C465        C  0.42186088  0.41856756  0.92411464    -0.04300
C466        C  0.39992330  0.38654701  0.93298427    -0.01500
C467        C  0.37622953  0.36610113  0.91011268     0.03500
C468        C  0.37580337  0.37650628  0.87717605    -0.04300
C469        C  0.39893900  0.40790583  0.86761462    -0.01400
C470        C  0.42145651  0.42911012  0.89123992     0.03500
C471        C  0.40135526  0.37460846  0.96587050     0.38200
C472        C  0.40027903  0.41811456  0.83328066     0.38200
C473        C  0.44492150  0.46145939  0.88146939     0.36600
C474        C  0.35112782  0.33492173  0.92116218     0.36600
N475        N  0.46375954  0.48725251  0.87374768    -0.38200
N476        N  0.33087480  0.31021769  0.93002861    -0.38200
N477        N  0.40190043  0.42642808  0.80584301    -0.37700
N478        N  0.40268220  0.36481249  0.49187436    -0.37700
C479        C  0.41836940  0.41492104  0.57005837    -0.04300
C480        C  0.42899732  0.40842149  0.60043106    -0.01500
C481        C  0.40705824  0.38575067  0.62331479     0.03500
C482        C  0.37415690  0.36929447  0.61622846    -0.04300
C483        C  0.36354447  0.37561122  0.58579413    -0.01400
C484        C  0.38540682  0.39828036  0.56294517     0.03500
C485        C  0.46250857  0.42587657  0.60880722     0.38200
C486        C  0.33008142  0.35770472  0.57720502     0.38200
C487        C  0.37380782  0.40340990  0.53143266     0.36600
C488        C  0.41853458  0.38019234  0.65462094     0.36600
N489        N  0.36444428  0.40734896  0.00630673    -0.38200
N490        N  0.42821108  0.37610889  0.67943723    -0.38200
N491        N  0.30340723  0.34331252  0.57038166    -0.37700
N492        N  0.48922647  0.43982059  0.61550030    -0.37700
C493        C  0.15839790  0.38379340  0.70105258    -0.04300
C494        C  0.17873516  0.39948512  0.67334455    -0.01500
C495        C  0.18183958  0.42822258  0.66051686     0.03500
C496        C  0.16449504  0.44124189  0.67459682    -0.04300
C497        C  0.14092475  0.42344006  0.69830869    -0.01400
C498        C  0.13681037  0.39414748  0.71032285     0.03500
C499        C  0.19704431  0.38710099  0.65779302     0.38200
C500        C  0.12209384  0.43631796  0.71192506     0.38200
C501        C  0.11094348  0.37604035  0.73329452     0.36600
C502        C  0.20319442  0.44476806  0.63295545     0.36600
N503        N  0.09022619  0.36366959  0.75206380    -0.38200
N504        N  0.22002732  0.45794892  0.61083758    -0.38200
N505        N  0.10732939  0.44674380  0.72296725    -0.37700
N506        N  0.21133952  0.37749285  0.64396616    -0.37700
C507        C  0.16418979  0.38871055  0.77851844    -0.04300
C508        C  0.14373325  0.38274990  0.80634505    -0.01500
C509        C  0.14350407  0.40852656  0.82341992     0.03500
C510        C  0.16226575  0.44035063  0.81178436    -0.04300
C511        C  0.18023130  0.44554836  0.78241219    -0.01400
C512        C  0.18414061  0.42105633  0.76882908     0.03500
C513        C  0.12203492  0.35026763  0.81717317     0.38200
C514        C  0.19393663  0.47601529  0.76472832     0.38200
C515        C  0.20908022  0.43057220  0.74457344     0.36600
C516        C  0.12343968  0.40202499  0.85243853     0.36600
N517        N  0.22916617  0.44128381  0.72505496    -0.38200
N518        N  0.10720112  0.39675276  0.87543950    -0.38200
N519        N  0.20492913  0.50023620  0.75074267    -0.37700
N520        N  0.10452607  0.32464579  0.82657099    -0.37700
C521        C  0.22494738  0.34455154  0.78469998    -0.04300
C522        C  0.25618988  0.37018735  0.78023698    -0.01500
C523        C  0.28223164  0.36782974  0.79194651     0.03500
C524        C  0.27700977  0.34193298  0.81247337    -0.04300
C525        C  0.24594658  0.32101785  0.82399101    -0.01400
C526        C  0.22047692  0.32438393  0.81233215     0.02600
C527        C  0.26114467  0.40178508  0.77417292     0.38200
C528        C  0.24033407  0.29711656  0.84916502     0.38200
C529        C  0.19401462  0.31484942  0.83470169     0.36600
C530        C  0.31409483  0.39205544  0.78266914     0.36600
N531        N  0.17376467  0.30788173  0.85376627    -0.38200
N532        N  0.33938987  0.41151342  0.77487222    -0.38200
N533        N  0.23587843  0.27797807  0.86913916    -0.37700
N534        N  0.26649462  0.42786944  0.77156994    -0.37700
C535        C  0.22494109  0.33707560  0.70671159    -0.04300
C536        C  0.21949884  0.30806817  0.69203935    -0.01500
C537        C  0.24516958  0.30401814  0.68269844     0.03500
C538        C  0.27654511  0.33025781  0.68361193    -0.04300
C539        C  0.28139315  0.36062850  0.69267786    -0.01400
C540        C  0.25555419  0.36418159  0.70239482     0.03500
C541        C  0.18864669  0.28565320  0.67854690     0.38200
C542        C  0.31308265  0.38859113  0.69207801     0.38200
C543        C  0.26005649  0.39595724  0.70054062     0.36600
C544        C  0.23879594  0.27310443  0.67025224     0.36600
N545        N  0.26644104  0.42220035  0.69643057    -0.38200
N546        N  0.23336313  0.24827529  0.66053476    -0.38200
N547        N  0.33829596  0.41090608  0.69151298    -0.37700
N548        N  0.16551926  0.26834455  0.66439154    -0.37700
C549        C  0.11198195  0.27619981  0.77813438    -0.04300
C550        C  0.11619088  0.25610200  0.80089085    -0.01500
C551        C  0.09044223  0.23308932  0.82039199     0.03500
C552        C  0.05898370  0.22532282  0.81282364    -0.04300
C553        C  0.05462325  0.24123138  0.78527916    -0.01400
C554        C  0.08051274  0.26866005  0.77131832     0.03500
C555        C  0.14539057  0.25538990  0.80127946     0.38200
C556        C  0.02406855  0.22783320  0.76852147     0.38200
C557        C  0.07372046  0.28784207  0.74878033     0.36600
C558        C  0.09678189  0.21718574  0.84750218     0.36600
N559        N  0.06617941  0.30126643  0.73043811    -0.38200
N560        N  0.10215265  0.20476460  0.86919040    -0.38200
N561        N  0.00002652  0.21707194  0.75458820    -0.37700
N562        N  0.16772450  0.25289239  0.80155293    -0.37700
C563        C  0.11561674  0.27451653  0.70271585    -0.04300
C564        C  0.09731130  0.27966733  0.67845830    -0.01500
C565        C  0.06821019  0.25372147  0.66678720     0.03500
C566        C  0.05783417  0.22231586  0.67781197    -0.04300
C567        C  0.07793834  0.21655157  0.69817453    -0.01400
C568        C  0.10707974  0.24233707  0.70960259     0.03500
C569        C  0.10730038  0.31126229  0.66545375     0.38200
C570        C  0.06817950  0.18403697  0.70827504     0.38200
C571        C  0.12966622  0.23524528  0.72489984     0.36600
C572        C  0.04866382  0.25935013  0.64355100     0.36600
N573        N  0.14771285  0.22843210  0.73486041    -0.38200
N574        N  0.03311051  0.26386398  0.62502221    -0.38200
N575        N  0.06027403  0.15809448  0.71638547    -0.37700
N576        N  0.11394128  0.33553536  0.65324541    -0.37700
C577        C  0.39204864  0.17389790  0.80051025    -0.04300
C578        C  0.38836034  0.15288770  0.82718828    -0.01500
C579        C  0.41536073  0.15558466  0.84383393     0.03500
C580        C  0.44609641  0.18161400  0.83676216    -0.04300
C581        C  0.44803879  0.20662657  0.81656156    -0.01400
C582        C  0.42241251  0.20129321  0.79590557     0.03500
C583        C  0.35720451  0.12717281  0.83656816     0.38200
C584        C  0.47583233  0.23858277  0.81792272     0.38200
C585        C  0.42859473  0.22389264  0.76921228     0.36600
C586        C  0.41100538  0.13152655  0.86824178     0.36600
N587        N  0.43564471  0.24213958  0.74760605    -0.38200
N588        N  0.40725438  0.11222701  0.88773035    -0.38200
N589        N  0.49776734  0.26415741  0.81915467    -0.37700
N590        N  0.33289806  0.10645136  0.84531846    -0.37700
C591        C  0.39059213  0.16466271  0.72323199    -0.04300
C592        C  0.40473261  0.18501478  0.69503017    -0.01500
C593        C  0.42978497  0.18492705  0.67737158     0.03500
C594        C  0.44194638  0.16555014  0.68805754    -0.04300
C595        C  0.42797226  0.14502489  0.71549760    -0.01400
C596        C  0.40169501  0.14347780  0.73200839     0.03500
C597        C  0.39525362  0.20757120  0.68443900     0.38200
C598        C  0.44159566  0.12631718  0.72770545     0.38200
C599        C  0.38589263  0.11888183  0.75707463     0.36600
C600        C  0.44333464  0.20505384  0.64808833     0.36600
N601        N  0.37464308  0.09869408  0.77680906    -0.38200
N602        N  0.45394089  0.22093399  0.62461495    -0.38200
N603        N  0.45274373  0.11177958  0.73773778    -0.37700
N604        N  0.38912557  0.22627972  0.67458050    -0.37700
C605        C  0.33593667  0.27293867  0.68707855    -0.04300
C606        C  0.31743873  0.24140671  0.67485432    -0.01500
C607        C  0.31855383  0.21580640  0.69064354     0.03500
C608        C  0.33848117  0.22170373  0.71893368    -0.04300
C609        C  0.35965164  0.25416748  0.72835371    -0.01400
C610        C  0.35730034  0.27929757  0.71350980     0.03500
C611        C  0.29660992  0.23525442  0.64640211     0.38200
C612        C  0.38373602  0.26253593  0.75382777     0.38200
C613        C  0.37550306  0.31156410  0.72704939     0.36600
C614        C  0.29753220  0.18349976  0.67865202     0.36600
N615        N  0.38971430  0.33702974  0.73846306    -0.38200
N616        N  0.28039941  0.15808835  0.66830455    -0.38200
N617        N  0.40305596  0.27113093  0.77439191    -0.37700
N618        N  0.28009120  0.23036430  0.62362235    -0.37700
C619        C  0.32582217  0.21741932  0.79375923    -0.04300
C620        C  0.34429242  0.23506550  0.82167146    -0.01500
C621        C  0.34208688  0.26123730  0.83445671     0.03500
C622        C  0.32267547  0.27145433  0.81835100    -0.04300
C623        C  0.30173469  0.25141476  0.79268134    -0.01400
C624        C  0.30231747  0.22394364  0.78189560     0.03500
C625        C  0.36706858  0.22781604  0.83644104     0.38200
C626        C  0.27982605  0.25888500  0.77586094     0.38200
C627        C  0.27865795  0.20302253  0.75771975     0.36600
C628        C  0.35978763  0.27702460  0.86457841     0.36600
N629        N  0.25946737  0.18805618  0.73792682    -0.38200
N630        N  0.37400289  0.28905713  0.88873505    -0.38200
N631        N  0.26226114  0.26444312  0.76215751    -0.37700
N632        N  0.38543468  0.22264479  0.84882551    -0.37700
C633        C  0.23254319  0.05453880  0.83239425    -0.04300
C634        C  0.25562083  0.05158460  0.81353577    -0.01500
C635        C  0.27830320  0.07744856  0.79437749     0.03500
C636        C  0.28252051  0.10838247  0.79837071    -0.04300
C637        C  0.26445467  0.11283692  0.82330648    -0.01400
C638        C  0.23838625  0.08597586  0.83862230     0.03500
C639        C  0.25734896  0.02245117  0.81453089     0.38200
C640        C  0.27088323  0.14468698  0.83198681     0.38200
C641        C  0.21770973  0.09124230  0.86031401     0.36600
C642        C  0.29728003  0.07164849  0.77070477     0.36600
N643        N  0.20137124  0.09584392  0.87746455    -0.38200
N644        N  0.31118597  0.06566397  0.75148064    -0.38200
N645        N  0.27504584  0.16952203  0.84000456    -0.37700
N646        N  0.25906281  0.99944357  0.81531198    -0.37700
C647        C  0.27852634  0.10972236  0.72094178    -0.04300
C648        C  0.28433003  0.09449752  0.69360466    -0.01500
C649        C  0.25878373  0.06946849  0.67539382     0.03500
C650        C  0.22710479  0.05860839  0.68452636    -0.04300
C651        C  0.22111543  0.07374849  0.71119797    -0.01400
C652        C  0.24634156  0.09995750  0.72814275     0.03500
C653        C  0.31639864  0.10344639  0.68440842     0.38200
C654        C  0.18881596  0.06100251  0.72280673     0.38200
C655        C  0.23802801  0.11686405  0.75215481     0.36600
C656        C  0.26504934  0.05456257  0.64722032     0.36600
N657        N  0.22902873  0.12867110  0.77094251    -0.38200
N658        N  0.27001301  0.54266680  0.62465046    -0.38200
N659        N  0.16328858  0.05065518  0.73277993    -0.37700
N660        N  0.34167395  0.11001858  0.67629361    -0.37700
C661        C  0.33402950  0.66614063  0.29184858     0.46500
H662        H  0.33334498  0.66655872  0.31953130    -0.02600
C663        C  0.33538222  0.66453802  0.22684802     0.46500
H664        H  0.33597556  0.66392827  0.19922027    -0.02600
C665        C  0.33240637  0.69409537  0.27505330    -0.16300
C666        C  0.36440634  0.66764307  0.27804319    -0.16000
C667        C  0.30590318  0.63556523  0.27675159    -0.16400
C668        C  0.33516451  0.69436829  0.24064363    -0.16400
C669        C  0.36461516  0.66555370  0.24344458    -0.15900
C670        C  0.30561276  0.63511105  0.24208804    -0.16300
C671        C  0.16784578  0.83314696  0.20933894     0.46500
H672        H  0.16821053  0.83147473  0.18181876    -0.02600
C673        C  0.16602364  0.83436822  0.27424791     0.46500
H674        H  0.16468994  0.83517058  0.30164774    -0.02600
C675        C  0.14057058  0.80185566  0.22403426    -0.16300
C676        C  0.19890015  0.83833706  0.22631476    -0.16000
C677        C  0.16260254  0.86037480  0.22305926    -0.16400
C678        C  0.13937741  0.80238586  0.25848933    -0.16400
C679        C  0.19807185  0.83951827  0.26122419    -0.15900
C680        C  0.16300043  0.86159917  0.25785487    -0.16300
C681        C  0.35068900  0.84556950  0.14043321     0.81200
N682        N  0.35392005  0.82099143  0.15221352    -0.77100
C683        C  0.33197401  0.79908414  0.17344232     0.83700
N684        N  0.30706642  0.80207421  0.18345980    -0.77000
C685        C  0.30368324  0.82664986  0.17212449     0.83800
N686        N  0.32547256  0.84813699  0.15040812    -0.78700
C687        C  0.35123718  0.85412840  0.35304692     0.81200
N688        N  0.32835647  0.86003283  0.34178012    -0.77100
C689        C  0.30361593  0.83738484  0.32346662     0.83700
N690        N  0.30184618  0.80902318  0.31706213    -0.77000
C691        C  0.32460612  0.80277578  0.32748098     0.83800
N692        N  0.34929818  0.82569269  0.34560794    -0.78700
C693        C  0.15003387  0.99761512  0.36503820     0.81200
N694        N  0.17855932  0.52494014  0.36036569    -0.77100
C695        C  0.20165949  0.52456239  0.34179673     0.83700
N696        N  0.19516701  0.49648751  0.32790727    -0.77000
C697        C  0.16702509  0.96927575  0.33093583     0.83800
N698        N  0.14423006  0.96972883  0.34995550    -0.78700
C699        C  0.15282052  0.00445021  0.13664953     0.81200
N700        N  0.17844012  0.53163729  0.14879645    -0.77100
C701        C  0.20027377  0.52952753  0.16843053     0.83700
N702        N  0.19612263  0.00027870  0.17603502    -0.77000
C703        C  0.17038841  0.97322468  0.16441902     0.83800
N704        N  0.14885635  0.97545943  0.14506539    -0.78700
C705        C  0.99510202  0.64659560  0.13865896     0.81200
N706        N  0.02392707  0.67186766  0.14722214    -0.77100
C707        C  0.02625527  0.69536051  0.16772624     0.83700
N708        N  0.99954050  0.69349257  0.18004036    -0.77000
C709        C  0.47062899  0.66829574  0.17212241     0.83800
N710        N  0.46841574  0.64479864  0.15144901    -0.78700
C711        C  0.50355342  0.65735280  0.36948010     0.81200
N712        N  0.03048965  0.67894105  0.35309990    -0.77100
C713        C  0.03054865  0.70179278  0.33311463     0.83700
N714        N  0.50337149  0.70254388  0.33015606    -0.77000
C715        C  0.47617535  0.68152879  0.34579165     0.83800
N716        N  0.47647596  0.65867744  0.36538109    -0.78700
Fe717      Fe  0.49889060  0.95680552  0.99980670     1.65800
Fe718      Fe  0.45702408  0.99619199  0.99832200     1.73200
Fe719      Fe  0.03815069  0.53896973  0.00015497     1.54400
O720        O  0.05754170  0.52603716  0.03887503    -0.80700
O721        O  0.47235045  0.53437458  0.46535704    -0.79000
O722        O  0.03511594  0.97300655  0.03508424    -0.83200
O723        O  0.03196274  0.97142865  0.46160829    -0.78000
O724        O  0.02138596  0.55865866  0.03483319    -0.79800
O725        O  0.44084781  0.96504574  0.45787529    -0.82600
C726        C  0.05532167  0.49835062  0.45329052     0.98200
C727        C  0.05577629  0.99987988  0.04732832     1.05700
O728        O  0.49805754  0.99733626  0.99948857    -1.11500
O729        O  0.43517268  0.95811236  0.03156692    -0.74000
O730        O  0.46608999  0.93702713  0.03815468    -0.77500
O731        O  0.06012938  0.52470671  0.46558085    -0.78100
C732        C  0.44139853  0.93821822  0.04528797     0.97100
O733        O  0.46308497  0.93485719  0.46429083    -0.76100
O734        O  0.46892822  0.52777214  0.03825527    -0.81300
C735        C  0.49865365  0.55593029  0.45352105     0.99700
C736        C  0.99478633  0.55224443  0.04695794     1.05700
O737        O  0.02476951  0.55811579  0.46145018    -0.76900
C738        C  0.44362057  0.94112864  0.44995802     1.04000
C739        C  0.50310782  0.63174585  0.39111823    -0.04300
C740        C  0.01724560  0.61399682  0.38040918    -0.01500
C741        C  0.01564764  0.58908792  0.40051874     0.03500
C742        C  0.49904093  0.58088412  0.43111848    -0.04300
C743        C  0.48468828  0.59850175  0.44178747    -0.01400
C744        C  0.48760985  0.62435657  0.42250343     0.03500
C745        C  0.03281391  0.62056736  0.34815060     0.38200
C746        C  0.46758907  0.59074000  0.47325893     0.38200
C747        C  0.47628470  0.64457764  0.43613380     0.36600
C748        C  0.03039313  0.57119625  0.38918888     0.36600
N749        N  0.46758107  0.66087453  0.44726708    -0.38200
N750        N  0.04214751  0.55687770  0.38028211    -0.38200
N751        N  0.45374544  0.58446832  0.49820125    -0.37700
N752        N  0.04525033  0.62579638  0.32241257    -0.37700
C753        C  0.99413693  0.57586211  0.07067569    -0.04300
C754        C  0.47518850  0.56596228  0.09974145    -0.01500
C755        C  0.47468526  0.58884908  0.12153977     0.03500
C756        C  0.99332461  0.62190756  0.11470704    -0.04300
C757        C  0.01136512  0.63177779  0.08492590    -0.01400
C758        C  0.01178479  0.60901800  0.06313431     0.03500
C759        C  0.45672334  0.53211811  0.10783494     0.38200
C760        C  0.02863267  0.66545102  0.07577853     0.38200
C761        C  0.02944693  0.61990526  0.03205111     0.36600
C762        C  0.45543721  0.57802113  0.15148731     0.36600
N763        N  0.04343557  0.62857094  0.00725076    -0.38200
N764        N  0.43979652  0.56898864  0.17518045    -0.38200
N765        N  0.04236181  0.69225114  0.06837424    -0.37700
N766        N  0.44195729  0.50512297  0.11427437    -0.37700
C767        C  0.12935333  0.00535669  0.11319650    -0.04300
C768        C  0.11400946  0.52272527  0.12083473    -0.01500
C769        C  0.08945890  0.52042326  0.09991801     0.03500
C770        C  0.08019338  0.00099103  0.07085722    -0.04300
C771        C  0.09612497  0.98424896  0.06276257    -0.01400
C772        C  0.12041473  0.98639449  0.08372522     0.03500
C773        C  0.12262466  0.54229739  0.15079132     0.38200
C774        C  0.08850131  0.96564371  0.03204245     0.38200
C775        C  0.13686701  0.96959633  0.07426227     0.36600
C776        C  0.07297800  0.53722123  0.10905580     0.36600
N777        N  0.14992905  0.95615456  0.06681044    -0.38200
N778        N  0.05974396  0.55053418  0.11632782    -0.38200
N779        N  0.08251684  0.95082964  0.00757101    -0.37700
N780        N  0.12914959  0.55821807  0.17447088    -0.37700
C781        C  0.12554559  0.99818730  0.38703668    -0.04300
C782        C  0.13451506  0.51452050  0.41816520    -0.01500
C783        C  0.11171044  0.51540777  0.43902624     0.03500
C784        C  0.07930352  0.49905359  0.42972939    -0.04300
C785        C  0.07011316  0.98212565  0.39904098    -0.01400
C786        C  0.09309121  0.98201834  0.37761041     0.03500
C787        C  0.16708128  0.52913142  0.42979794     0.38200
C788        C  0.03695606  0.96516591  0.38923910     0.38200
C789        C  0.08323105  0.96588581  0.34546184     0.36600
C790        C  0.12160655  0.53202416  0.47097844     0.36600
N791        N  0.07529322  0.95301800  0.31981862    -0.38200
N792        N  0.12955945  0.54531224  0.49640150    -0.38200
N793        N  0.01048433  0.95152679  0.38152548    -0.37700
N794        N  0.19300248  0.54066631  0.43916029    -0.37700
C795        C  0.42187798  0.91854120  0.42403830    -0.04300
C796        C  0.39994171  0.88650964  0.43286752    -0.01500
C797        C  0.37627416  0.86608469  0.40996565     0.03500
C798        C  0.37588070  0.87651828  0.37703509    -0.04300
C799        C  0.39900106  0.90794017  0.36751962    -0.01400
C800        C  0.42150130  0.92911886  0.39117304     0.03500
C801        C  0.40134332  0.87453736  0.46574458     0.38200
C802        C  0.40031720  0.91821768  0.33321770     0.38200
C803        C  0.44498051  0.96147678  0.38144094     0.36600
C804        C  0.35114334  0.83490916  0.42098810     0.36600
N805        N  0.46383512  0.98727405  0.37374998    -0.38200
N806        N  0.33086149  0.81021126  0.42983047    -0.38200
N807        N  0.40191498  0.92660231  0.30581201    -0.37700
N808        N  0.40264754  0.86472250  0.99172849    -0.37700
C809        C  0.41829937  0.91481641  0.07002338    -0.04300
C810        C  0.42893179  0.90836455  0.10042183    -0.01500
C811        C  0.40700079  0.88569192  0.12331069     0.03500
C812        C  0.37410465  0.86917781  0.11619949    -0.04300
C813        C  0.36348724  0.87544149  0.08573938    -0.01400
C814        C  0.38533965  0.89812209  0.06289034     0.03500
C815        C  0.46243652  0.92587580  0.10882239     0.38200
C816        C  0.33003096  0.85747264  0.07713067     0.38200
C817        C  0.37373423  0.90321804  0.03136545     0.36600
C818        C  0.41847452  0.88019677  0.15465253     0.36600
N819        N  0.36436415  0.90713091  0.50622689    -0.38200
N820        N  0.42814296  0.87616361  0.17950134    -0.38200
N821        N  0.30336238  0.84302829  0.07029181    -0.37700
N822        N  0.48914911  0.93986451  0.11553611    -0.37700
C823        C  0.15833038  0.88376762  0.20109428    -0.04300
C824        C  0.17858586  0.89942557  0.17332445    -0.01500
C825        C  0.18174386  0.92821277  0.16057828     0.03500
C826        C  0.16448847  0.94128503  0.17476635    -0.04300
C827        C  0.14095711  0.92349823  0.19852102    -0.01400
C828        C  0.13680027  0.89416521  0.21045917     0.03500
C829        C  0.19665336  0.88688256  0.15753618     0.38200
C830        C  0.12221330  0.93642589  0.21225559     0.38200
C831        C  0.11093142  0.87603454  0.23342209     0.36600
C832        C  0.20305222  0.94474599  0.13298055     0.36600
N833        N  0.09020900  0.86362494  0.25218014    -0.38200
N834        N  0.21985217  0.95792228  0.11083848    -0.38200
N835        N  0.10752168  0.94689215  0.22339804    -0.37700
N836        N  0.21073510  0.87713955  0.14351093    -0.37700
C837        C  0.16426110  0.88875500  0.27854424    -0.04300
C838        C  0.14382579  0.88282250  0.30638356    -0.01500
C839        C  0.14361878  0.90861655  0.32344748     0.03500
C840        C  0.16239520  0.94043607  0.31180125    -0.04300
C841        C  0.18037106  0.94561237  0.28243782    -0.01400
C842        C  0.18423673  0.92109232  0.26884965     0.03500
C843        C  0.12212497  0.85034975  0.31723716     0.38200
C844        C  0.19412007  0.97608163  0.26475409     0.38200
C845        C  0.20914586  0.93056342  0.24456666     0.36600
C846        C  0.12356252  0.90213667  0.35246925     0.36600
N847        N  0.22920806  0.94124404  0.22502153    -0.38200
N848        N  0.10733124  0.89688223  0.37547330    -0.38200
N849        N  0.20514774  0.00030507  0.25076935    -0.37700
N850        N  0.10461456  0.82473716  0.32665735    -0.37700
C851        C  0.22506745  0.84465383  0.28461886    -0.04300
C852        C  0.25634917  0.87012251  0.27985670    -0.01500
C853        C  0.28235945  0.86770464  0.29154443     0.03500
C854        C  0.27712092  0.84197055  0.31233486    -0.04300
C855        C  0.24610009  0.82126901  0.32407859    -0.01400
C856        C  0.22064893  0.82466869  0.31241869     0.02600
C857        C  0.26147577  0.90173287  0.27345306     0.38200
C858        C  0.24052422  0.79754064  0.34944987     0.38200
C859        C  0.19425360  0.81528593  0.33484602     0.36600
C860        C  0.31421828  0.89169896  0.28196830     0.36600
N861        N  0.17405727  0.80842736  0.35395313    -0.38200
N862        N  0.33951160  0.91095778  0.27393222    -0.38200
N863        N  0.23609963  0.77853991  0.36958125    -0.37700
N864        N  0.26700845  0.92785565  0.27057939    -0.37700
C865        C  0.22487899  0.83701343  0.20665370    -0.04300
C866        C  0.21948183  0.80790539  0.19231236    -0.01500
C867        C  0.24517881  0.80388185  0.18302488     0.03500
C868        C  0.27651565  0.83021852  0.18361985    -0.04300
C869        C  0.28126984  0.86064016  0.19231574    -0.01400
C870        C  0.25539857  0.86415842  0.20199071     0.03500
C871        C  0.18861594  0.78533351  0.17897200     0.38200
C872        C  0.31288923  0.88869099  0.19140023     0.38200
C873        C  0.25972325  0.89584768  0.19976551     0.36600
C874        C  0.23884577  0.77286993  0.17094922     0.36600
N875        N  0.26592795  0.92199705  0.19534319    -0.38200
N876        N  0.23344353  0.74796081  0.16153702    -0.38200
N877        N  0.33804468  0.91107959  0.19058979    -0.37700
N878        N  0.16548336  0.76788677  0.16490607    -0.37700
C879        C  0.11203313  0.77629057  0.27829069    -0.04300
C880        C  0.11626609  0.75630633  0.30118862    -0.01500
C881        C  0.09051428  0.73332445  0.32070966     0.03500
C882        C  0.05904794  0.72546245  0.31303994    -0.04300
C883        C  0.05468112  0.74127771  0.28541143    -0.01400
C884        C  0.08055566  0.76869859  0.27142463     0.03500
C885        C  0.14549371  0.75565137  0.30169782     0.38200
C886        C  0.02414003  0.72778890  0.26860740     0.38200
C887        C  0.07374427  0.78782560  0.24882410     0.36600
C888        C  0.09685766  0.71755890  0.34795864     0.36600
N889        N  0.06620580  0.80122049  0.23043741    -0.38200
N890        N  0.10222927  0.70525125  0.36976180    -0.38200
N891        N  0.00010708  0.71695122  0.25464378    -0.37700
N892        N  0.16784089  0.75317789  0.30204912    -0.37700
C893        C  0.11558892  0.77445684  0.20284331    -0.04300
C894        C  0.09734957  0.77958857  0.17847707    -0.01500
C895        C  0.06828392  0.75363524  0.16673978     0.03500
C896        C  0.05785194  0.72224195  0.17784003    -0.04300
C897        C  0.07786533  0.71648742  0.19836169    -0.01400
C898        C  0.10698467  0.74227256  0.20984267     0.03500
C899        C  0.10734347  0.81117750  0.16545064     0.38200
C900        C  0.06802874  0.68398112  0.20857028     0.38200
C901        C  0.12947075  0.73515515  0.22535179     0.36600
C902        C  0.04882073  0.75924320  0.14336266     0.36600
N903        N  0.14743165  0.72829974  0.23548745    -0.38200
N904        N  0.03333344  0.76373708  0.12471952    -0.38200
N905        N  0.06006004  0.65804611  0.21676781    -0.37700
N906        N  0.11398314  0.83544544  0.15323049    -0.37700
C907        C  0.39198092  0.67379872  0.30052794    -0.04300
C908        C  0.38830732  0.65276676  0.32717771    -0.01500
C909        C  0.41531838  0.65546014  0.34379534     0.03500
C910        C  0.44604506  0.68150920  0.33673250    -0.04300
C911        C  0.44796786  0.70653841  0.31658212    -0.01400
C912        C  0.42233722  0.70120989  0.29593797     0.03500
C913        C  0.35715856  0.62703292  0.33654892     0.38200
C914        C  0.47574954  0.73850010  0.31798254     0.38200
C915        C  0.42851516  0.72381872  0.26925712     0.36600
C916        C  0.41098681  0.63137447  0.36815614     0.36600
N917        N  0.43556595  0.74207109  0.24765619    -0.38200
N918        N  0.40726237  0.61205660  0.38760894    -0.38200
N919        N  0.49767524  0.76407881  0.31924896    -0.37700
N920        N  0.33285774  0.60629529  0.34529034    -0.37700
C921        C  0.39053709  0.66460792  0.22324702    -0.04300
C922        C  0.40467433  0.68498101  0.19505882    -0.01500
C923        C  0.42974713  0.68493171  0.17740120     0.03500
C924        C  0.44192882  0.66556700  0.18806871    -0.04300
C925        C  0.42795189  0.64501399  0.21548977    -0.01400
C926        C  0.40165876  0.64343374  0.23200232     0.03500
C927        C  0.39516584  0.70751601  0.18447447     0.38200
C928        C  0.44158426  0.62630694  0.22767328     0.38200
C929        C  0.38585273  0.61880933  0.25704044     0.36600
C930        C  0.44329233  0.70508224  0.14813321     0.36600
N931        N  0.37459731  0.59859895  0.27675006    -0.38200
N932        N  0.45389214  0.72098181  0.12467154    -0.38200
N933        N  0.45273798  0.61176746  0.23768465    -0.37700
N934        N  0.38901669  0.72620860  0.17461418    -0.37700
C935        C  0.33588281  0.77286064  0.18712577    -0.04300
C936        C  0.31736095  0.74132594  0.17491255    -0.01500
C937        C  0.31845769  0.71571640  0.19070669     0.03500
C938        C  0.33839220  0.72160544  0.21898833    -0.04300
C939        C  0.35957527  0.75406812  0.22840572    -0.01400
C940        C  0.35724253  0.77920755  0.21355686     0.03500
C941        C  0.29652606  0.73518036  0.14646763     0.38200
C942        C  0.38365093  0.76242860  0.25388736     0.38200
C943        C  0.37546213  0.81147483  0.22709046     0.36600
C944        C  0.29741276  0.68340931  0.17872971     0.36600
N945        N  0.38968595  0.83694173  0.23849847    -0.38200
N946        N  0.28026068  0.65799683  0.16839710    -0.38200
N947        N  0.40296250  0.77102237  0.27446049    -0.37700
N948        N  0.28000026  0.73029495  0.12369531    -0.37700
C949        C  0.32573958  0.71730569  0.29380696    -0.04300
C950        C  0.34422202  0.73496392  0.32170719    -0.01500
C951        C  0.34206544  0.76117978  0.33444336     0.03500
C952        C  0.32269651  0.77142621  0.31829445    -0.04300
C953        C  0.30175385  0.75138755  0.29262616    -0.01400
C954        C  0.30226162  0.72385764  0.28191966     0.03500
C955        C  0.36696299  0.72768182  0.33650918     0.38200
C956        C  0.27994633  0.75893506  0.27570097     0.38200
C957        C  0.27856414  0.70291126  0.25778852     0.36600
C958        C  0.35978725  0.77699437  0.36454534     0.36600
N959        N  0.25934337  0.68792457  0.23803035    -0.38200
N960        N  0.37402260  0.78904884  0.38868537    -0.38200
N961        N  0.26246618  0.76455911  0.26191229    -0.37700
N962        N  0.38530023  0.72248211  0.34891781    -0.37700
C963        C  0.23247702  0.55442290  0.33245236    -0.04300
C964        C  0.25553815  0.55146204  0.31356853    -0.01500
C965        C  0.27821933  0.57732657  0.29440729     0.03500
C966        C  0.28244269  0.60826306  0.29840366    -0.04300
C967        C  0.26438600  0.61271985  0.32335105    -0.01400
C968        C  0.23832989  0.58586156  0.33868794     0.03500
C969        C  0.25724919  0.52231825  0.31453949     0.38200
C970        C  0.27081063  0.64456960  0.33202494     0.38200
C971        C  0.21767625  0.59112929  0.36041589     0.36600
C972        C  0.29719511  0.57152624  0.27073358     0.36600
N973        N  0.20135239  0.59572254  0.37759960    -0.38200
N974        N  0.31110331  0.56554205  0.25151217    -0.38200
N975        N  0.27496872  0.66940407  0.34003802    -0.37700
N976        N  0.25894771  0.49930154  0.31530262    -0.37700
C977        C  0.27846899  0.60961647  0.22096002    -0.04300
C978        C  0.28429412  0.59440853  0.19362250    -0.01500
C979        C  0.25876331  0.56939344  0.17538351     0.03500
C980        C  0.22707668  0.55854320  0.18447386    -0.04300
C981        C  0.22106558  0.57366428  0.21114852    -0.01400
C982        C  0.24627926  0.59984765  0.22813712     0.03500
C983        C  0.31636957  0.60336044  0.18445296     0.38200
C984        C  0.18875503  0.56091812  0.22272034     0.38200
C985        C  0.23794896  0.61672263  0.25217226     0.36600
C986        C  0.26505365  0.55448717  0.14722792     0.36600
N987        N  0.22893778  0.62850450  0.27097788    -0.38200
N988        N  0.26997054  0.04273111  0.12463074    -0.38200
N989        N  0.16321870  0.55057006  0.23266659    -0.37700
N990        N  0.34164933  0.60993384  0.17635499    -0.37700
C991        C  0.33403175  0.66613946  0.79185196     0.46500
H992        H  0.33334888  0.66655949  0.81953475    -0.02600
C993        C  0.33538255  0.66453500  0.72685144     0.46500
H994        H  0.33597522  0.66392468  0.69922372    -0.02600
C995        C  0.33240740  0.69409324  0.77505578    -0.16300
C996        C  0.36440846  0.66764245  0.77804594    -0.16000
C997        C  0.30590563  0.63556250  0.77675624    -0.16400
C998        C  0.33516352  0.69436476  0.74064603    -0.16400
C999        C  0.36461626  0.66555216  0.74344746    -0.15900
C1000       C  0.30561462  0.63510768  0.74209253    -0.16300
C1001       C  0.16784183  0.83314655  0.70933046     0.46500
H1002       H  0.16820394  0.83147134  0.68181158    -0.02600
C1003       C  0.16602742  0.83437356  0.77424158     0.46500
H1004       H  0.16469610  0.83517843  0.80163968    -0.02600
C1005       C  0.14056798  0.80185667  0.72403048    -0.16300
C1006       C  0.19889759  0.83833749  0.72630338    -0.16000
C1007       C  0.16260061  0.86037602  0.72305127    -0.16400
C1008       C  0.13937905  0.80239013  0.75848586    -0.16400
C1009       C  0.19807444  0.83952265  0.76121274    -0.15900
C1010       C  0.16300199  0.86160273  0.75784685    -0.16300
C1011       C  0.35067856  0.84555516  0.64042184     0.81200
N1012       N  0.35390914  0.82097753  0.65220460    -0.77100
C1013       C  0.33196358  0.79907260  0.67343556     0.83700
N1014       N  0.30705736  0.80206501  0.68345309    -0.77000
C1015       C  0.30367428  0.82663988  0.67211472     0.83800
N1016       N  0.32546297  0.84812416  0.65039614    -0.78700
C1017       C  0.35124221  0.85413411  0.85303201     0.81200
N1018       N  0.32836499  0.86004038  0.84175750    -0.77100
C1019       C  0.30362605  0.83739238  0.82344238     0.83700
N1020       N  0.30185406  0.80902876  0.81704389    -0.77000
C1021       C  0.32460915  0.80277792  0.82747216     0.83800
N1022       N  0.34930012  0.82569546  0.84560014    -0.78700
C1023       C  0.15003208  0.99761685  0.86502985     0.81200
N1024       N  0.17855506  0.52493710  0.86035996    -0.77100
C1025       C  0.20165480  0.52455801  0.84179124     0.83700
N1026       N  0.19515962  0.49648332  0.82789900    -0.77000
C1027       C  0.16702325  0.96927992  0.83092344     0.83800
N1028       N  0.14422775  0.96973188  0.84994350    -0.78700
C1029       C  0.15282625  0.00445677  0.63664645     0.81200
N1030       N  0.17845125  0.53164088  0.64878975    -0.77100
C1031       C  0.20028154  0.52952775  0.66842598     0.83700
N1032       N  0.19612626  0.00028165  0.67603193    -0.77000
C1033       C  0.17039140  0.97322871  0.66441530     0.83800
N1034       N  0.14886030  0.97546521  0.64506189    -0.78700
C1035       C  0.99510038  0.64659573  0.63864798     0.81200
N1036       N  0.02392541  0.67186848  0.64721056    -0.77100
C1037       C  0.02625301  0.69536168  0.66771393     0.83700
N1038       N  0.99953807  0.69349331  0.68002773    -0.77000
C1039       C  0.47062233  0.66828695  0.67211931     0.83800
N1040       N  0.46840940  0.64478933  0.65144709    -0.78700
C1041       C  0.50355772  0.65735904  0.86948534     0.81200
N1042       N  0.03049523  0.67894828  0.85310204    -0.77100
C1043       C  0.03055347  0.70179894  0.83311559     0.83700
N1044       N  0.50337439  0.70254897  0.83016112    -0.77000
C1045       C  0.47617857  0.68153372  0.84579685     0.83800
N1046       N  0.47647984  0.65868293  0.86538666    -0.78700
Fe1047     Fe  0.49889146  0.95680492  0.49981665     1.65800
Fe1048     Fe  0.45702289  0.99618875  0.49832116     1.73200
Fe1049     Fe  0.03815061  0.53896627  0.50015282     1.54400
O1050       O  0.05754557  0.52603844  0.53887233    -0.80700
O1051       O  0.47235512  0.53438191  0.96535981    -0.79000
O1052       O  0.03511577  0.97301068  0.53509275    -0.83200
O1053       O  0.03195984  0.97142803  0.96159932    -0.78000
O1054       O  0.02138535  0.55865563  0.53482969    -0.79800
O1055       O  0.44084612  0.96505133  0.95787324    -0.82600
C1056       C  0.05532008  0.49835648  0.95328532     0.98200
C1057       C  0.05577885  0.99988575  0.54733081     1.05700
O1058       O  0.49805701  0.99733486  0.49949141    -1.11500
O1059       O  0.43517107  0.95811095  0.53156813    -0.74000
O1060       O  0.46609027  0.93702911  0.53816389    -0.77500
O1061       O  0.06013042  0.52471151  0.96558164    -0.78100
C1062       C  0.44139691  0.93821819  0.54529254     0.97100
O1063       O  0.46308390  0.93486263  0.96428057    -0.76100
O1064       O  0.46892381  0.52776570  0.53825269    -0.81300
C1065       C  0.49865869  0.55593628  0.95352317     0.99700
C1066       C  0.99478534  0.55224092  0.54695383     1.05700
O1067       O  0.02477125  0.55812207  0.96145331    -0.76900
C1068       C  0.44361892  0.94113520  0.94995107     1.04000
C1069       C  0.50311300  0.63175263  0.89112288    -0.04300
C1070       C  0.01724248  0.61399821  0.88040842    -0.01500
C1071       C  0.01564297  0.58908884  0.90051824     0.03500
C1072       C  0.49904683  0.58089114  0.93112201    -0.04300
C1073       C  0.48469823  0.59851174  0.94179410    -0.01400
C1074       C  0.48761957  0.62436649  0.92251036     0.03500
C1075       C  0.03280210  0.62056166  0.84814533     0.38200
C1076       C  0.46760278  0.59075257  0.97326779     0.38200
C1077       C  0.47629868  0.64459046  0.93614274     0.36600
C1078       C  0.03037672  0.57118756  0.88918334     0.36600
N1079       N  0.46759858  0.66088975  0.94727752    -0.38200
N1080       N  0.04212122  0.55686084  0.88027242    -0.38200
N1081       N  0.45376197  0.58448309  0.99821183    -0.37700
N1082       N  0.04523143  0.62578509  0.82240359    -0.37700
C1083       C  0.99413505  0.57585936  0.57066934    -0.04300
C1084       C  0.47518185  0.56595365  0.59973927    -0.01500
C1085       C  0.47467848  0.58884001  0.62153796     0.03500
C1086       C  0.99332283  0.62190655  0.61469768    -0.04300
C1087       C  0.01136061  0.63177531  0.58491477    -0.01400
C1088       C  0.01178000  0.60901456  0.56312444     0.03500
C1089       C  0.45671534  0.53210914  0.60783110     0.38200
C1090       C  0.02862462  0.66544768  0.57576393     0.38200
C1091       C  0.02943826  0.61989972  0.53203876     0.36600
C1092       C  0.45542879  0.57801129  0.65148431     0.36600
N1093       N  0.04342376  0.62856353  0.50723641    -0.38200
N1094       N  0.43978653  0.56897778  0.67517629    -0.38200
N1095       N  0.04235063  0.69224707  0.56835665    -0.37700
N1096       N  0.44194807  0.50511373  0.61426902    -0.37700
C1097       C  0.12935983  0.00536494  0.61319374    -0.04300
C1098       C  0.11402953  0.52274188  0.62082297    -0.01500
C1099       C  0.08947659  0.52043852  0.59990950     0.03500
C1100       C  0.08019832  0.00099936  0.57085752    -0.04300
C1101       C  0.09612729  0.98425468  0.56276311    -0.01400
C1102       C  0.12041782  0.98640017  0.58372419     0.03500
C1103       C  0.12265614  0.54232515  0.65077208     0.38200
C1104       C  0.08850022  0.96564686  0.53204445     0.38200
C1105       C  0.13686724  0.96959909  0.57426135     0.36600
C1106       C  0.07300374  0.53724543  0.60904394     0.36600
N1107       N  0.14992693  0.95615494  0.56680958    -0.38200
N1108       N  0.05977652  0.55056600  0.61631310    -0.38200
N1109       N  0.08251300  0.95083079  0.50757418    -0.37700
N1110       N  0.12919136  0.55825545  0.67444516    -0.37700
C1111       C  0.12554433  0.99818754  0.88703008    -0.04300
C1112       C  0.13451002  0.51451382  0.91816076    -0.01500
C1113       C  0.11170762  0.51540639  0.93902110     0.03500
C1114       C  0.07930127  0.49905996  0.92972213    -0.04300
C1115       C  0.07011363  0.98213333  0.89903211    -0.01400
C1116       C  0.09309128  0.98202721  0.87759994     0.03500
C1117       C  0.16707354  0.52911006  0.92979841     0.38200
C1118       C  0.03695740  0.96518064  0.88922711     0.38200
C1119       C  0.08323264  0.96590544  0.84544584     0.36600
C1120       C  0.12160540  0.53202161  0.97097370     0.36600
N1121       N  0.07529616  0.95304657  0.81979802    -0.38200
N1122       N  0.12955978  0.54530969  0.99639666    -0.38200
N1123       N  0.01048629  0.95154674  0.88151101    -0.37700
N1124       N  0.19299239  0.54063208  0.93916486    -0.37700
C1125       C  0.42187600  0.91854963  0.92402967    -0.04300
C1126       C  0.39994533  0.88651509  0.93285452    -0.01500
C1127       C  0.37628003  0.86608928  0.90995103     0.03500
C1128       C  0.37588360  0.87652515  0.87702219    -0.04300
C1129       C  0.39899728  0.90795148  0.86751151    -0.01400
C1130       C  0.42149505  0.92913046  0.89116693     0.03500
C1131       C  0.40134992  0.87454047  0.96572926     0.38200
C1132       C  0.40030923  0.91823407  0.83321238     0.38200
C1133       C  0.44496770  0.96149217  0.88143900     0.36600
C1134       C  0.35115326  0.83491057  0.92097104     0.36600
N1135       N  0.46381692  0.98729246  0.87375101    -0.38200
N1136       N  0.33087450  0.81021011  0.92981146    -0.38200
N1137       N  0.40190386  0.92662366  0.80580915    -0.37700
N1138       N  0.40263855  0.86472092  0.49174556    -0.37700
C1139       C  0.41829509  0.91481435  0.57002492    -0.04300
C1140       C  0.42892494  0.90835445  0.60042052    -0.01500
C1141       C  0.40699229  0.88567492  0.62330306     0.03500
C1142       C  0.37409640  0.86916503  0.61619071    -0.04300
C1143       C  0.36348125  0.87543797  0.58573422    -0.01400
C1144       C  0.38533565  0.89812310  0.56288988     0.03500
C1145       C  0.46242866  0.92586509  0.60882566     0.38200
C1146       C  0.33002519  0.85747385  0.57712365     0.38200
C1147       C  0.37373235  0.90322668  0.53136744     0.36600
C1148       C  0.41846462  0.88016700  0.65463905     0.36600
N1149       N  0.36436423  0.90711631  0.00622310    -0.38200
N1150       N  0.42813228  0.87612272  0.67948249    -0.38200
N1151       N  0.30335687  0.84303354  0.57028300    -0.37700
N1152       N  0.48914030  0.93985373  0.61554362    -0.37700
C1153       C  0.15832742  0.88376851  0.70108664    -0.04300
C1154       C  0.17857933  0.89942368  0.67331374    -0.01500
C1155       C  0.18173991  0.92821254  0.66056952     0.03500
C1156       C  0.16448951  0.94128839  0.67476192    -0.04300
C1157       C  0.14095967  0.92350351  0.69851860    -0.01400
C1158       C  0.13680026  0.89416891  0.71045471     0.03500
C1159       C  0.19663628  0.88687315  0.65751647     0.38200
C1160       C  0.12221996  0.93643436  0.71225677     0.38200
C1161       C  0.11093106  0.87603865  0.73341732     0.36600
C1162       C  0.20304486  0.94474307  0.63296856     0.36600
N1163       N  0.09020809  0.86362928  0.75217476    -0.38200
N1164       N  0.21984200  0.95791719  0.61082389    -0.38200
N1165       N  0.10753173  0.94690326  0.72340208    -0.37700
N1166       N  0.21070875  0.87712386  0.64348352    -0.37700
C1167       C  0.16426299  0.88875897  0.77853567    -0.04300
C1168       C  0.14382625  0.88282694  0.80637338    -0.01500
C1169       C  0.14361669  0.90862093  0.82343433     0.03500
C1170       C  0.16239510  0.94044059  0.81178915    -0.04300
C1171       C  0.18037510  0.94561706  0.78242868    -0.01400
C1172       C  0.18423986  0.92109600  0.76884120     0.03500
C1173       C  0.12212656  0.85035449  0.81722865     0.38200
C1174       C  0.19412916  0.97608752  0.76474673     0.38200
C1175       C  0.20914834  0.93056500  0.74455776     0.36600
C1176       C  0.12355511  0.90214063  0.85245160     0.36600
N1177       N  0.22920978  0.94124340  0.72501170    -0.38200
N1178       N  0.10731923  0.89688580  0.87545165    -0.38200
N1179       N  0.20516107  0.00031196  0.75076345    -0.37700
N1180       N  0.10461706  0.82474252  0.82665102    -0.37700
C1181       C  0.22507502  0.84466235  0.78460265    -0.04300
C1182       C  0.25635789  0.87012360  0.77982437    -0.01500
C1183       C  0.28236804  0.86770295  0.79150665     0.03500
C1184       C  0.27713118  0.84197769  0.81230988    -0.04300
C1185       C  0.24611355  0.82128715  0.82406819    -0.01400
C1186       C  0.22066166  0.82468689  0.81241032     0.02600
C1187       C  0.26149093  0.90173487  0.77341134     0.38200
C1188       C  0.24054267  0.79757000  0.84945117     0.38200
C1189       C  0.19427047  0.81531072  0.83484186     0.36600
C1190       C  0.31422534  0.89168574  0.78191228     0.36600
N1191       N  0.17407742  0.80845694  0.85395204    -0.38200
N1192       N  0.33951729  0.91093468  0.77386104    -0.38200
N1193       N  0.23612271  0.77857857  0.86959212    -0.37700
N1194       N  0.26703068  0.92785934  0.77053028    -0.37700
C1195       C  0.22487233  0.83700914  0.70663982    -0.04300
C1196       C  0.21947508  0.80789536  0.69231479    -0.01500
C1197       C  0.24517179  0.80387072  0.68302992     0.03500
C1198       C  0.27650731  0.83021068  0.68360852    -0.04300
C1199       C  0.28125929  0.86063575  0.69228580    -0.01400
C1200       C  0.25538822  0.86415455  0.70196032     0.03500
C1201       C  0.18860780  0.78531693  0.67898274     0.38200
C1202       C  0.31287604  0.88868947  0.69135309     0.38200
C1203       C  0.25970763  0.89584118  0.69972278     0.36600
C1204       C  0.23883875  0.77285315  0.67097318     0.36600
N1205       N  0.26590610  0.92198739  0.69529071    -0.38200
N1206       N  0.23343673  0.74793962  0.66157646    -0.38200
N1207       N  0.33802930  0.91108044  0.69052897    -0.37700
N1208       N  0.16547434  0.76786410  0.66492184    -0.37700
C1209       C  0.11203637  0.77629776  0.77829126    -0.04300
C1210       C  0.11627123  0.75631754  0.80119314    -0.01500
C1211       C  0.09051945  0.73333440  0.82071338     0.03500
C1212       C  0.05905259  0.72546929  0.81304141    -0.04300
C1213       C  0.05468490  0.74128274  0.78541176    -0.01400
C1214       C  0.08055847  0.76870398  0.77142468     0.03500
C1215       C  0.14550138  0.75566753  0.80170706     0.38200
C1216       C  0.02414416  0.72779145  0.76860645     0.38200
C1217       C  0.07374587  0.78782955  0.74882324     0.36600
C1218       C  0.09686316  0.71756972  0.84796300     0.36600
N1219       N  0.06620699  0.80122355  0.73043582    -0.38200
N1220       N  0.10223490  0.70526238  0.86976637    -0.38200
N1221       N  0.00011163  0.71695190  0.75464167    -0.37700
N1222       N  0.16785013  0.75319682  0.80206080    -0.37700
C1223       C  0.11558348  0.77445646  0.70284210    -0.04300
C1224       C  0.09734743  0.77958860  0.67847149    -0.01500
C1225       C  0.06828374  0.75363560  0.66672946     0.03500
C1226       C  0.05784898  0.72224225  0.67783092    -0.04300
C1227       C  0.07785685  0.71648709  0.69836073    -0.01400
C1228       C  0.10697492  0.74227141  0.70984578     0.03500
C1229       C  0.10734149  0.81117778  0.66544568     0.38200
C1230       C  0.06801545  0.68398062  0.70857336     0.38200
C1231       C  0.12945494  0.73515108  0.72536505     0.36600
C1232       C  0.04882502  0.75924396  0.64334622     0.36600
N1233       N  0.14741024  0.72829163  0.73550901    -0.38200
N1234       N  0.03334136  0.76373812  0.62469816    -0.38200
N1235       N  0.06004262  0.65804546  0.71677403    -0.37700
N1236       N  0.11398032  0.83544554  0.65322568    -0.37700
C1237       C  0.39198346  0.67379884  0.80053011    -0.04300
C1238       C  0.38831033  0.65276811  0.82718099    -0.01500
C1239       C  0.41532164  0.65546304  0.84379945     0.03500
C1240       C  0.44604792  0.68151270  0.83673647    -0.04300
C1241       C  0.44797012  0.70654053  0.81658403    -0.01400
C1242       C  0.42233940  0.70121013  0.79593907     0.03500
C1243       C  0.35716189  0.62703353  0.83655213     0.38200
C1244       C  0.47575141  0.73850262  0.81798252     0.38200
C1245       C  0.42851659  0.72381757  0.76925692     0.36600
C1246       C  0.41099081  0.63137800  0.86816075     0.36600
N1247       N  0.43556670  0.74206884  0.74765500    -0.38200
N1248       N  0.40726719  0.61206060  0.88761379    -0.38200
N1249       N  0.49767684  0.76408161  0.81924719    -0.37700
N1250       N  0.33286132  0.60629516  0.84529314    -0.37700
C1251       C  0.39053667  0.66460488  0.72324919    -0.04300
C1252       C  0.40467209  0.68497635  0.69505956    -0.01500
C1253       C  0.42974234  0.68492452  0.67739957     0.03500
C1254       C  0.44192273  0.66555837  0.68806577    -0.04300
C1255       C  0.42794735  0.64500661  0.71548794    -0.01400
C1256       C  0.40165726  0.64342963  0.73200375     0.03500
C1257       C  0.39516435  0.70751222  0.68447621     0.38200
C1258       C  0.44157842  0.62629757  0.72766915     0.38200
C1259       C  0.38585355  0.61880771  0.75704475     0.36600
C1260       C  0.44328649  0.70507407  0.64813072     0.36600
N1261       N  0.37460037  0.59859917  0.77675655    -0.38200
N1262       N  0.45388561  0.72097288  0.62466844    -0.38200
N1263       N  0.45273105  0.61175641  0.73767850    -0.37700
N1264       N  0.38901530  0.72620523  0.67461701    -0.37700
C1265       C  0.33587271  0.77285056  0.68712287    -0.04300
C1266       C  0.31735198  0.74131482  0.67491208    -0.01500
C1267       C  0.31845072  0.71570729  0.69070861     0.03500
C1268       C  0.33838697  0.72159954  0.71898951    -0.04300
C1269       C  0.35956881  0.75406323  0.72840414    -0.01400
C1270       C  0.35723284  0.77920037  0.71355425     0.03500
C1271       C  0.29651629  0.73516611  0.64646714     0.38200
C1272       C  0.38364881  0.76242747  0.75388147     0.38200
C1273       C  0.37544991  0.81146835  0.72708669     0.36600
C1274       C  0.29740746  0.68339923  0.67873334     0.36600
N1275       N  0.38967141  0.83693585  0.73849376    -0.38200
N1276       N  0.28025677  0.65798611  0.66840135    -0.38200
N1277       N  0.40296462  0.77102478  0.77445026    -0.37700
N1278       N  0.27998974  0.73027827  0.62369493    -0.37700
C1279       C  0.32574126  0.71730395  0.79380923    -0.04300
C1280       C  0.34422956  0.73496829  0.82170354    -0.01500
C1281       C  0.34207454  0.76118594  0.83443693     0.03500
C1282       C  0.32269559  0.77142387  0.81829476    -0.04300
C1283       C  0.30174037  0.75137269  0.79264056    -0.01400
C1284       C  0.30225604  0.72384802  0.78192879     0.03500
C1285       C  0.36697567  0.72769105  0.83650097     0.38200
C1286       C  0.27990622  0.75889787  0.77573963     0.38200
C1287       C  0.27855927  0.70289876  0.75779852     0.36600
C1288       C  0.35980739  0.77700991  0.86453043     0.36600
N1289       N  0.25933946  0.68790969  0.73804043    -0.38200
N1290       N  0.37405170  0.78907143  0.88866388    -0.38200
N1291       N  0.26240380  0.76450305  0.76197082    -0.37700
N1292       N  0.38531725  0.72249581  0.84890629    -0.37700
C1293       C  0.23247547  0.55441741  0.83245080    -0.04300
C1294       C  0.25553497  0.55145567  0.81356453    -0.01500
C1295       C  0.27822027  0.57732231  0.79440842     0.03500
C1296       C  0.28244616  0.60825951  0.79840878    -0.04300
C1297       C  0.26439115  0.61271562  0.82335880    -0.01400
C1298       C  0.23833382  0.58585691  0.83869402     0.03500
C1299       C  0.25724007  0.52230841  0.81452747     0.38200
C1300       C  0.27081893  0.64456553  0.83203711     0.38200
C1301       C  0.21768524  0.59112511  0.86042954     0.36600
C1302       C  0.29719779  0.57152342  0.77073566     0.36600
N1303       N  0.20136571  0.59571860  0.87761998    -0.38200
N1304       N  0.31110758  0.56554049  0.75151509    -0.38200
N1305       N  0.27498076  0.66940058  0.84005365    -0.37700
N1306       N  0.25893401  0.49928895  0.81528378    -0.37700
C1307       C  0.27847211  0.60961201  0.72096433    -0.04300
C1308       C  0.28429937  0.59440708  0.69362523    -0.01500
C1309       C  0.25877007  0.56939330  0.67538367     0.03500
C1310       C  0.22708304  0.55854129  0.68447300    -0.04300
C1311       C  0.22106958  0.57365898  0.71114919    -0.01400
C1312       C  0.24628171  0.59984068  0.72814119     0.03500
C1313       C  0.31637533  0.60336059  0.68445607     0.38200
C1314       C  0.18875775  0.56091176  0.72271744     0.38200
C1315       C  0.23794916  0.61671114  0.75217985     0.36600
C1316       C  0.26506231  0.55449080  0.64722586     0.36600
N1317       N  0.22893683  0.62848946  0.77098864    -0.38200
N1318       N  0.26997738  0.04273805  0.62462903    -0.38200
N1319       N  0.16321997  0.55056261  0.73265976    -0.37700
N1320       N  0.34165513  0.60993473  0.67635743    -0.37700
C1321       C  0.83400674  0.16611291  0.29183971     0.46500
H1322       H  0.83331925  0.16653278  0.31952240    -0.02600
C1323       C  0.83536358  0.16450594  0.22684002     0.46500
H1324       H  0.83596071  0.16389577  0.19921197    -0.02600
C1325       C  0.83238204  0.19406527  0.27503905    -0.16300
C1326       C  0.86438743  0.16762053  0.27804050    -0.16000
C1327       C  0.80588419  0.13553285  0.27674176    -0.16400
C1328       C  0.83513946  0.19433391  0.24062890    -0.16400
C1329       C  0.86459526  0.16552562  0.24344308    -0.15900
C1330       C  0.80559626  0.13507896  0.24207834    -0.16300
C1331       C  0.66789929  0.33315033  0.20937701     0.46500
H1332       H  0.66828551  0.33151052  0.18184369    -0.02600
C1333       C  0.66602221  0.33431927  0.27426769     0.46500
H1334       H  0.66467666  0.33509479  0.30168620    -0.02600
C1335       C  0.64061038  0.30184718  0.22402815    -0.16300
C1336       C  0.69894157  0.33832694  0.22636959    -0.16000
C1337       C  0.66264619  0.36036573  0.22310099    -0.16400
C1338       C  0.63939156  0.30234660  0.25848250    -0.16400
C1339       C  0.69807715  0.33947901  0.26127792    -0.15900
C1340       C  0.66301604  0.36156844  0.25789709    -0.16300
C1341       C  0.85069341  0.34553975  0.14038828     0.81200
N1342       N  0.85390971  0.32094433  0.15214345    -0.77100
C1343       C  0.83195824  0.29902953  0.17336371     0.83700
N1344       N  0.80706117  0.30202933  0.18339800    -0.77000
C1345       C  0.80369579  0.32662336  0.17209166     0.83800
N1346       N  0.82548996  0.34812135  0.15038625    -0.78700
C1347       C  0.85125770  0.35411324  0.35303760     0.81200
N1348       N  0.82836495  0.36001251  0.34180158    -0.77100
C1349       C  0.80361610  0.33736513  0.32349710     0.83700
N1350       N  0.80185141  0.30900859  0.31707326    -0.77000
C1351       C  0.82462103  0.30276600  0.32746582     0.83800
N1352       N  0.84932114  0.32568251  0.34558308    -0.78700
C1353       C  0.65002512  0.49757579  0.36508501     0.81200
N1354       N  0.67854336  0.02491005  0.36037310    -0.77100
C1355       C  0.70164084  0.02452210  0.34180838     0.83700
N1356       N  0.69514810  0.99643626  0.32794795    -0.77000
C1357       C  0.66700673  0.46922378  0.33098967     0.83800
N1358       N  0.64421869  0.46968159  0.35001784    -0.78700
C1359       C  0.65279929  0.50440241  0.13666927     0.81200
N1360       N  0.67841235  0.03159724  0.14881405    -0.77100
C1361       C  0.70025817  0.02949134  0.16843023     0.83700
N1362       N  0.69612564  0.50023715  0.17601860    -0.77000
C1363       C  0.67039206  0.47318148  0.16440476     0.83800
N1364       N  0.64884701  0.47541266  0.14506938    -0.78700
C1365       C  0.49511138  0.14665758  0.13859027     0.81200
N1366       N  0.52394659  0.17191656  0.14714896    -0.77100
C1367       C  0.52629542  0.19540561  0.16767447     0.83700
N1368       N  0.49959102  0.19354851  0.18000877    -0.77000
C1369       C  0.97058552  0.16821128  0.17215188     0.83800
N1370       N  0.96839660  0.14471105  0.15149932    -0.78700
C1371       C  0.00355652  0.15739404  0.36951369     0.81200
N1372       N  0.53048065  0.17886977  0.35304315    -0.77100
C1373       C  0.53054194  0.20171668  0.33304715     0.83700
N1374       N  0.00337629  0.20260275  0.33021730    -0.77000
C1375       C  0.97617275  0.18156703  0.34582797     0.83800
N1376       N  0.97647272  0.15870628  0.36540335    -0.78700
Fe1377     Fe  0.99890298  0.45681467  0.99978856     1.65800
Fe1378     Fe  0.95703160  0.49619776  0.99829344     1.73200
Fe1379     Fe  0.53814066  0.03896003  0.00018217     1.54400
O1380       O  0.55751466  0.02602703  0.03892406    -0.80700
O1381       O  0.97234792  0.03437451  0.46533420    -0.79000
O1382       O  0.53511214  0.47301557  0.03510713    -0.83200
O1383       O  0.53195340  0.47142870  0.46163037    -0.78000
O1384       O  0.52137250  0.05866813  0.03483433    -0.79800
O1385       O  0.94085998  0.46504627  0.45784367    -0.82600
C1386       C  0.55531133  0.99834083  0.45332022     0.98200
C1387       C  0.55576301  0.49988390  0.04736861     1.05700
O1388       O  0.99806750  0.49734447  0.99946279    -1.11500
O1389       O  0.93517401  0.45811389  0.03153591    -0.74000
O1390       O  0.96609221  0.43703052  0.03812513    -0.77500
O1391       O  0.56012777  0.02469287  0.46563024    -0.78100
C1392       C  0.94139856  0.43821816  0.04525559     0.97100
O1393       O  0.96310945  0.43486789  0.46425984    -0.76100
O1394       O  0.96893985  0.02776885  0.03823457    -0.81300
C1395       C  0.99865213  0.05594101  0.45350989     0.99700
C1396       C  0.49477351  0.05225399  0.04696013     1.05700
O1397       O  0.52476187  0.05809208  0.46145640    -0.76900
C1398       C  0.94364104  0.44113327  0.44992651     1.04000
C1399       C  0.00311319  0.13178152  0.39114153    -0.04300
C1400       C  0.51720758  0.11392230  0.38037760    -0.01500
C1401       C  0.51561094  0.08902265  0.40050132     0.03500
C1402       C  0.99904275  0.08090397  0.43111832    -0.04300
C1403       C  0.98468399  0.09851354  0.44179452    -0.01400
C1404       C  0.98760436  0.12437387  0.42252085     0.03500
C1405       C  0.53273601  0.12045103  0.34809891     0.38200
C1406       C  0.96759033  0.09074513  0.47326968     0.38200
C1407       C  0.97627542  0.14458824  0.43616055     0.36600
C1408       C  0.53032116  0.07109886  0.38916692     0.36600
N1409       N  0.96757112  0.16088174  0.44730150    -0.38200
N1410       N  0.54204451  0.05675239  0.38025479    -0.38200
N1411       N  0.95375376  0.08446898  0.49821674    -0.37700
N1412       N  0.54513710  0.12564487  0.32234291    -0.37700
C1413       C  0.49411834  0.07588601  0.07065123    -0.04300
C1414       C  0.97519450  0.06590675  0.09975842    -0.01500
C1415       C  0.97468364  0.08877857  0.12157465     0.03500
C1416       C  0.49330958  0.12195675  0.11464314    -0.04300
C1417       C  0.51132153  0.13180780  0.08484385    -0.01400
C1418       C  0.51174811  0.10903600  0.06307611     0.03500
C1419       C  0.95671625  0.03205557  0.10781844     0.38200
C1420       C  0.52854500  0.16547045  0.07565259     0.38200
C1421       C  0.52939927  0.11990313  0.03198471     0.36600
C1422       C  0.95539664  0.07792593  0.15149400     0.36600
N1423       N  0.54338002  0.12855303  0.00717828    -0.38200
N1424       N  0.93972300  0.06887114  0.17516249    -0.38200
N1425       N  0.54223391  0.19226108  0.06820903    -0.37700
N1426       N  0.94194241  0.00505489  0.11423150    -0.37700
C1427       C  0.62932326  0.50531061  0.11323092    -0.04300
C1428       C  0.61394763  0.02265051  0.12089629    -0.01500
C1429       C  0.58940665  0.02036273  0.09997386     0.03500
C1430       C  0.58017683  0.50098176  0.07089433    -0.04300
C1431       C  0.59610489  0.48423832  0.06278670    -0.01400
C1432       C  0.62038846  0.48636663  0.08374716     0.03500
C1433       C  0.62251751  0.04216445  0.15089284     0.38200
C1434       C  0.58847907  0.46564257  0.03205962     0.38200
C1435       C  0.63683547  0.46956643  0.07427107     0.36600
C1436       C  0.57289922  0.03712743  0.10913693     0.36600
N1437       N  0.64989222  0.45612188  0.06680908    -0.38200
N1438       N  0.55964347  0.05041283  0.11643105    -0.38200
N1439       N  0.58249046  0.45083298  0.00758466    -0.37700
N1440       N  0.62900062  0.05803477  0.17460744    -0.37700
C1441       C  0.62554191  0.49816035  0.38708268    -0.04300
C1442       C  0.63451305  0.01454896  0.41816972    -0.01500
C1443       C  0.61170687  0.01542979  0.43903468     0.03500
C1444       C  0.57929467  0.99904769  0.42975546    -0.04300
C1445       C  0.57011174  0.48210464  0.39909272    -0.01400
C1446       C  0.59308417  0.48197839  0.37766865     0.03500
C1447       C  0.66709243  0.02921948  0.42977481     0.38200
C1448       C  0.53695451  0.46515310  0.38928992     0.38200
C1449       C  0.58321384  0.46581248  0.34553782     0.36600
C1450       C  0.62160984  0.03207226  0.47097273     0.36600
N1451       N  0.57526741  0.45291646  0.31990956    -0.38200
N1452       N  0.62956793  0.04538086  0.49638453    -0.38200
N1453       N  0.51048280  0.45152530  0.38157563    -0.37700
N1454       N  0.69302514  0.04080800  0.43911426    -0.37700
C1455       C  0.92190048  0.41853741  0.42401141    -0.04300
C1456       C  0.89994768  0.38651562  0.43285879    -0.01500
C1457       C  0.87627880  0.36608650  0.40996114     0.03500
C1458       C  0.87590921  0.37650025  0.37701626    -0.04300
C1459       C  0.89906339  0.40789843  0.36747382    -0.01400
C1460       C  0.92155378  0.42909078  0.39112648     0.03500
C1461       C  0.90134307  0.37455346  0.46574343     0.38200
C1462       C  0.90043032  0.41812501  0.33314212     0.38200
C1463       C  0.94505265  0.46143420  0.38137500     0.36600
C1464       C  0.85113295  0.33492312  0.42099411     0.36600
N1465       N  0.96392229  0.48722048  0.37366792    -0.38200
N1466       N  0.83083991  0.31023447  0.42984327    -0.38200
N1467       N  0.90206330  0.42645263  0.30570830    -0.37700
N1468       N  0.90264274  0.36474735  0.99174008    -0.37700
C1469       C  0.91829874  0.41481067  0.06998814    -0.04300
C1470       C  0.92893432  0.40834571  0.10037702    -0.01500
C1471       C  0.90700727  0.38565606  0.12325650     0.03500
C1472       C  0.87410919  0.36915139  0.11615533    -0.04300
C1473       C  0.86348849  0.37542750  0.08570432    -0.01400
C1474       C  0.88533833  0.39811539  0.06285796     0.03500
C1475       C  0.96243904  0.42586177  0.10877810     0.38200
C1476       C  0.83003129  0.35745901  0.07709949     0.38200
C1477       C  0.87372955  0.40321426  0.03133700     0.36600
C1478       C  0.91849023  0.38012529  0.15457268     0.36600
N1479       N  0.86435810  0.40711854  0.50619543    -0.38200
N1480       N  0.92817149  0.37606270  0.17939675    -0.38200
N1481       N  0.80336187  0.34301332  0.07026455    -0.37700
N1482       N  0.98915170  0.43985685  0.11549106    -0.37700
C1483       C  0.65839025  0.38376443  0.20113380    -0.04300
C1484       C  0.67868641  0.39944834  0.17339732    -0.01500
C1485       C  0.68180819  0.42820835  0.16061518     0.03500
C1486       C  0.66450151  0.44124533  0.17475336    -0.04300
C1487       C  0.64096124  0.42344897  0.19849653    -0.01400
C1488       C  0.63682887  0.39413368  0.21046077     0.03500
C1489       C  0.69688713  0.38699798  0.15772829     0.38200
C1490       C  0.62219243  0.43635864  0.21220615     0.38200
C1491       C  0.61096643  0.37600705  0.23343249     0.36600
C1492       C  0.70314487  0.44475961  0.13304282     0.36600
N1493       N  0.59025253  0.36360496  0.25220148    -0.38200
N1494       N  0.71996759  0.45794886  0.11092048    -0.38200
N1495       N  0.60748343  0.44681248  0.22333134    -0.37700
N1496       N  0.71108547  0.37733298  0.14380296    -0.37700
C1497       C  0.66426594  0.38871779  0.27859265    -0.04300
C1498       C  0.64383793  0.38277573  0.30644305    -0.01500
C1499       C  0.64362726  0.40856436  0.32351741     0.03500
C1500       C  0.66237077  0.44038197  0.31185499    -0.04300
C1501       C  0.68031997  0.44556112  0.28247201    -0.01400
C1502       C  0.68421724  0.42105911  0.26889151     0.03500
C1503       C  0.62214988  0.35029984  0.31729679     0.38200
C1504       C  0.69401245  0.47601568  0.26476727     0.38200
C1505       C  0.70914026  0.43055773  0.24461922     0.36600
C1506       C  0.62360467  0.40208247  0.35256833     0.36600
N1507       N  0.72921365  0.44125758  0.22508653    -0.38200
N1508       N  0.60740251  0.39682752  0.37559823    -0.38200
N1509       N  0.70499325  0.50022893  0.25076841    -0.37700
N1510       N  0.60465081  0.32468182  0.32671196    -0.37700
C1511       C  0.72504014  0.34459267  0.28469924    -0.04300
C1512       C  0.75629802  0.37014980  0.28008126    -0.01500
C1513       C  0.78232814  0.36776086  0.29175782     0.03500
C1514       C  0.77710346  0.34193893  0.31240283    -0.04300
C1515       C  0.74606734  0.32112877  0.32404864    -0.01400
C1516       C  0.72060300  0.32451213  0.31240824     0.02600
C1517       C  0.76133081  0.40175485  0.27387184     0.38200
C1518       C  0.74048420  0.29731198  0.34931538     0.38200
C1519       C  0.69418255  0.31505365  0.33481909     0.36600
C1520       C  0.81418702  0.39187298  0.28232188     0.36600
N1521       N  0.67396606  0.30813992  0.35391380    -0.38200
N1522       N  0.83948224  0.41122935  0.27440325    -0.38200
N1523       N  0.73605301  0.27824080  0.36936319    -0.37700
N1524       N  0.76676425  0.42785778  0.27115312    -0.37700
C1525       C  0.72494284  0.33702388  0.20672678    -0.04300
C1526       C  0.71951632  0.30795930  0.19223038    -0.01500
C1527       C  0.74519359  0.30391715  0.18290460     0.03500
C1528       C  0.77654986  0.33020693  0.18362332    -0.04300
C1529       C  0.78135770  0.36060811  0.19249701    -0.01400
C1530       C  0.75551008  0.36414766  0.20222177     0.03500
C1531       C  0.68865239  0.28545793  0.17883179     0.38200
C1532       C  0.81301150  0.38861492  0.19170525     0.38200
C1533       C  0.75993119  0.39588516  0.20021313     0.36600
C1534       C  0.73883002  0.27294288  0.17066758     0.36600
N1535       N  0.76622939  0.42208638  0.19597377    -0.38200
N1536       N  0.73340500  0.24806463  0.16112415    -0.38200
N1537       N  0.83819463  0.41096781  0.19099052    -0.37700
N1538       N  0.66552215  0.26806909  0.16472809    -0.37700
C1539       C  0.61203934  0.27622576  0.27825013    -0.04300
C1540       C  0.61625679  0.25619094  0.30109080    -0.01500
C1541       C  0.59050258  0.23319786  0.32060075     0.03500
C1542       C  0.55904230  0.22538074  0.31296798    -0.04300
C1543       C  0.55468412  0.24123544  0.28537054    -0.01400
C1544       C  0.58056781  0.26865860  0.27139804     0.03500
C1545       C  0.64546863  0.25550416  0.30155096     0.38200
C1546       C  0.52414100  0.22778486  0.26857797     0.38200
C1547       C  0.57377112  0.28780692  0.24881310     0.36600
C1548       C  0.59683691  0.21736997  0.34779311     0.36600
N1549       N  0.56624159  0.30121469  0.23043402    -0.38200
N1550       N  0.60220198  0.20501089  0.36954926    -0.38200
N1551       N  0.50010681  0.21697920  0.25462186    -0.37700
N1552       N  0.66780600  0.25301310  0.30187043    -0.37700
C1553       C  0.61564034  0.27446984  0.20280782    -0.04300
C1554       C  0.59740252  0.27962068  0.17845762    -0.01500
C1555       C  0.56833690  0.25367611  0.16670808     0.03500
C1556       C  0.55790231  0.22227498  0.17778399    -0.04300
C1557       C  0.57792468  0.21650418  0.19827369    -0.01400
C1558       C  0.60704843  0.24228174  0.20975745     0.03500
C1559       C  0.60740710  0.31121750  0.16544901     0.38200
C1560       C  0.56809698  0.18399026  0.20844258     0.38200
C1561       C  0.62956167  0.23516053  0.22519025     0.36600
C1562       C  0.54887988  0.25929937  0.14333749     0.36600
N1563       N  0.64754745  0.22831021  0.23525875    -0.38200
N1564       N  0.53339740  0.26380288  0.12469696    -0.38200
N1565       N  0.56013656  0.15804922  0.21660927    -0.37700
N1566       N  0.61405756  0.33549231  0.15323883    -0.37700
C1567       C  0.89196709  0.17378861  0.30052602    -0.04300
C1568       C  0.88829885  0.15277429  0.32719262    -0.01500
C1569       C  0.91531260  0.15549062  0.34382864     0.03500
C1570       C  0.94603810  0.18153509  0.33675087    -0.04300
C1571       C  0.94795494  0.20654780  0.31657555    -0.01400
C1572       C  0.92232064  0.20120194  0.29592705     0.03500
C1573       C  0.85715197  0.12703677  0.33656489     0.38200
C1574       C  0.97573087  0.23851449  0.31796002     0.38200
C1575       C  0.92849082  0.22380212  0.26923926     0.36600
C1576       C  0.91098436  0.13144366  0.36823821     0.36600
N1577       N  0.93553894  0.24205248  0.24763680    -0.38200
N1578       N  0.90726180  0.11215897  0.38773348    -0.38200
N1579       N  0.99765165  0.26409717  0.31921338    -0.37700
N1580       N  0.83284993  0.10629630  0.34529990    -0.37700
C1581       C  0.89050840  0.16456349  0.22325138    -0.04300
C1582       C  0.90465411  0.18493334  0.19506409    -0.01500
C1583       C  0.92971663  0.18486454  0.17740718     0.03500
C1584       C  0.94187429  0.16547767  0.18807165    -0.04300
C1585       C  0.92788276  0.14492203  0.21548782    -0.01400
C1586       C  0.90160594  0.14336999  0.23200672     0.03500
C1587       C  0.89516821  0.20748774  0.18448554     0.38200
C1588       C  0.94148630  0.12618609  0.22766343     0.38200
C1589       C  0.88579721  0.11876186  0.25706017     0.36600
C1590       C  0.94327607  0.20501790  0.14814377     0.36600
N1591       N  0.87454003  0.09856503  0.27678411    -0.38200
N1592       N  0.95388600  0.22092001  0.12468553    -0.38200
N1593       N  0.95261503  0.11162149  0.23766898    -0.37700
N1594       N  0.88903740  0.22619662  0.17463489    -0.37700
C1595       C  0.83586862  0.27280933  0.18705491    -0.04300
C1596       C  0.81733379  0.24126731  0.17486620    -0.01500
C1597       C  0.81842565  0.21566321  0.19068057     0.03500
C1598       C  0.83836287  0.22156348  0.21896292    -0.04300
C1599       C  0.85955023  0.25402990  0.22836355    -0.01400
C1600       C  0.85722812  0.27916553  0.21348884     0.03500
C1601       C  0.79648874  0.23510791  0.14642748     0.38200
C1602       C  0.88362097  0.26239965  0.25385285     0.38200
C1603       C  0.87545680  0.31144071  0.22700079     0.36600
C1604       C  0.79737156  0.18335085  0.17872327     0.36600
N1605       N  0.88968716  0.33691465  0.23839086    -0.38200
N1606       N  0.78021127  0.15793544  0.16840310    -0.38200
N1607       N  0.90292895  0.27100192  0.27443069    -0.37700
N1608       N  0.77995381  0.23020817  0.12366031    -0.37700
C1609       C  0.82572573  0.21728316  0.29379085    -0.04300
C1610       C  0.84421405  0.23494103  0.32168883    -0.01500
C1611       C  0.84206849  0.26116341  0.33442259     0.03500
C1612       C  0.82270666  0.27141723  0.31827253    -0.04300
C1613       C  0.80176300  0.25138490  0.29260212    -0.01400
C1614       C  0.80225545  0.22384557  0.28190195     0.03500
C1615       C  0.86695196  0.22765455  0.33649018     0.38200
C1616       C  0.77997442  0.25895170  0.27566523     0.38200
C1617       C  0.77855015  0.20290009  0.25777676     0.36600
C1618       C  0.85979705  0.27698116  0.36452092     0.36600
N1619       N  0.75932311  0.18791349  0.23802411    -0.38200
N1620       N  0.87403643  0.28904340  0.38865678    -0.38200
N1621       N  0.76250969  0.26459159  0.26186706    -0.37700
N1622       N  0.88528791  0.22245445  0.34890127    -0.37700
C1623       C  0.73245259  0.05438125  0.33243684    -0.04300
C1624       C  0.75550593  0.05141860  0.31353635    -0.01500
C1625       C  0.77819454  0.07728907  0.29438553     0.03500
C1626       C  0.78242297  0.10822692  0.29839078    -0.04300
C1627       C  0.76436381  0.11268086  0.32333621    -0.01400
C1628       C  0.73830907  0.08582192  0.33867420     0.03500
C1629       C  0.75719962  0.02226407  0.31446916     0.38200
C1630       C  0.77078257  0.14453033  0.33200314     0.38200
C1631       C  0.71765761  0.09109315  0.36040180     0.36600
C1632       C  0.79716824  0.07149089  0.27070624     0.36600
N1633       N  0.70133640  0.09569270  0.37758281    -0.38200
N1634       N  0.81107203  0.06550566  0.25147994    -0.38200
N1635       N  0.77493564  0.16936535  0.34000617    -0.37700
N1636       N  0.75888566  0.99923947  0.31519697    -0.37700
C1637       C  0.77845441  0.10958534  0.22094933    -0.04300
C1638       C  0.78427937  0.09437768  0.19361138    -0.01500
C1639       C  0.75874795  0.06935976  0.17537603     0.03500
C1640       C  0.72706176  0.05850730  0.18447093    -0.04300
C1641       C  0.72105205  0.07362700  0.21114791    -0.01400
C1642       C  0.74626553  0.09981591  0.22812853     0.03500
C1643       C  0.81635479  0.10333367  0.18443661     0.38200
C1644       C  0.68874538  0.06086998  0.22273680     0.38200
C1645       C  0.73793621  0.11669782  0.25215582     0.36600
C1646       C  0.76503765  0.05445137  0.14722194     0.36600
N1647       N  0.72892586  0.12848549  0.27095489    -0.38200
N1648       N  0.76996373  0.54269094  0.12463447    -0.38200
N1649       N  0.66321408  0.05051276  0.23270165    -0.37700
N1650       N  0.84163420  0.10991017  0.17633365    -0.37700
C1651       C  0.83401023  0.16611259  0.79184585     0.46500
H1652       H  0.83332541  0.16653526  0.81952864    -0.02600
C1653       C  0.83536213  0.16450142  0.72684627     0.46500
H1654       H  0.83595710  0.16388957  0.69921818    -0.02600
C1655       C  0.83238315  0.19406311  0.77504396    -0.16300
C1656       C  0.86439033  0.16762065  0.77804502    -0.16000
C1657       C  0.80588758  0.13553044  0.77675077    -0.16400
C1658       C  0.83513685  0.19432909  0.74063357    -0.16400
C1659       C  0.86459563  0.16552357  0.74344767    -0.15900
C1660       C  0.80559713  0.13507455  0.74208730    -0.16300
C1661       C  0.66789347  0.33314771  0.70937157     0.46500
H1662       H  0.66827721  0.33150522  0.68183948    -0.02600
C1663       C  0.66602300  0.33432176  0.77426431     0.46500
H1664       H  0.66467975  0.33509954  0.80168116    -0.02600
C1665       C  0.64060519  0.30184620  0.72402691    -0.16300
C1666       C  0.69893668  0.33832408  0.72636169    -0.16000
C1667       C  0.66264303  0.36036516  0.72309602    -0.16400
C1668       C  0.63939008  0.30234841  0.75848150    -0.16400
C1669       C  0.69807639  0.33947939  0.76127002    -0.15900
C1670       C  0.66301594  0.36157010  0.75789211    -0.16300
C1671       C  0.85068097  0.34552223  0.64037567     0.81200
N1672       N  0.85389601  0.32092678  0.65213337    -0.77100
C1673       C  0.83194434  0.29901414  0.67335513     0.83700
N1674       N  0.80704872  0.30201657  0.68338894    -0.77000
C1675       C  0.80368400  0.32661021  0.67207975     0.83800
N1676       N  0.82547831  0.34810573  0.65037263    -0.78700
C1677       C  0.85125673  0.35411440  0.85303183     0.81200
N1678       N  0.82836722  0.36001504  0.84178783    -0.77100
C1679       C  0.80362046  0.33736755  0.82348128     0.83700
N1680       N  0.80185448  0.30900959  0.81706298    -0.77000
C1681       C  0.82461960  0.30276413  0.82746498     0.83800
N1682       N  0.84931806  0.32568125  0.84558393    -0.78700
C1683       C  0.65002430  0.49757807  0.86507976     0.81200
N1684       N  0.67854293  0.02490796  0.86036995    -0.77100
C1685       C  0.70164056  0.02451895  0.84180650     0.83700
N1686       N  0.69514514  0.99643407  0.82794131    -0.77000
C1687       C  0.66700476  0.46922753  0.83098001     0.83800
N1688       N  0.64421704  0.46968476  0.85000951    -0.78700
C1689       C  0.65280452  0.50440611  0.63666386     0.81200
N1690       N  0.67841777  0.03160089  0.64881566    -0.77100
C1691       C  0.70026024  0.02949097  0.66843348     0.83700
N1692       N  0.69612866  0.50023706  0.67601318    -0.77000
C1693       C  0.67039338  0.47318242  0.66440034     0.83800
N1694       N  0.64884942  0.47541547  0.64506504    -0.78700
C1695       C  0.49510645  0.14665700  0.63858281     0.81200
N1696       N  0.52394179  0.17191640  0.64714067    -0.77100
C1697       C  0.52629053  0.19540558  0.66766597     0.83700
N1698       N  0.49958629  0.19354804  0.68000093    -0.77000
C1699       C  0.97057956  0.16820623  0.67214947     0.83800
N1700       N  0.96839086  0.14470604  0.65149731    -0.78700
C1701       C  0.00356048  0.15739318  0.86951136     0.81200
N1702       N  0.53048360  0.17887408  0.85304795    -0.77100
C1703       C  0.53054443  0.20172043  0.83305147     0.83700
N1704       N  0.00338033  0.20260109  0.83021408    -0.77000
C1705       C  0.97617766  0.18156788  0.84582745     0.83800
N1706       N  0.97647747  0.15870739  0.86540351    -0.78700
Fe1707     Fe  0.99890554  0.45681066  0.49979581     1.65800
Fe1708     Fe  0.95703198  0.49619112  0.49829277     1.73200
Fe1709     Fe  0.53813912  0.03895966  0.50018128     1.54400
O1710       O  0.55751678  0.02603227  0.53892390    -0.80700
O1711       O  0.97235224  0.03437812  0.96533496    -0.79000
O1712       O  0.53511176  0.47301487  0.53511146    -0.83200
O1713       O  0.53195104  0.47143100  0.96162562    -0.78000
O1714       O  0.52136989  0.05866830  0.53483140    -0.79800
O1715       O  0.94085677  0.46505451  0.95784233    -0.82600
C1716       C  0.55531167  0.99834483  0.95331314     0.98200
C1717       C  0.55576408  0.49988455  0.54736885     1.05700
O1718       O  0.99806856  0.49733975  0.49946453    -1.11500
O1719       O  0.93517423  0.45810845  0.53153679    -0.74000
O1720       O  0.96609327  0.43702693  0.53813113    -0.77500
O1721       O  0.56013031  0.02469556  0.96562920    -0.78100
C1722       C  0.94139813  0.43821297  0.54525820     0.97100
O1723       O  0.96310555  0.43487515  0.96425361    -0.76100
O1724       O  0.96893827  0.02776897  0.53823393    -0.81300
C1725       C  0.99865698  0.05594298  0.95350996     0.99700
C1726       C  0.49477025  0.05225347  0.54695604     1.05700
O1727       O  0.52476450  0.05809563  0.96145914    -0.76900
C1728       C  0.94363660  0.44114123  0.94992277     1.04000
C1729       C  0.00311747  0.13178147  0.89113969    -0.04300
C1730       C  0.51720288  0.11392151  0.88037838    -0.01500
C1731       C  0.51560623  0.08902191  0.90050203     0.03500
C1732       C  0.99904871  0.08090647  0.93111880    -0.04300
C1733       C  0.98469660  0.09852141  0.94179819    -0.01400
C1734       C  0.98761654  0.12438073  0.92252316     0.03500
C1735       C  0.53272184  0.12044346  0.84809474     0.38200
C1736       C  0.96760944  0.09075881  0.97327716     0.38200
C1737       C  0.97629506  0.14460071  0.93616476     0.36600
C1738       C  0.53030679  0.07109051  0.88916249     0.36600
N1739       N  0.96759682  0.16089873  0.94730712    -0.38200
N1740       N  0.54202215  0.05673768  0.88024623    -0.38200
N1741       N  0.95377780  0.08448738  0.99822717    -0.37700
N1742       N  0.54511511  0.12563191  0.82233462    -0.37700
C1743       C  0.49411353  0.07588527  0.57064557    -0.04300
C1744       C  0.97519352  0.06590419  0.59975891    -0.01500
C1745       C  0.97468128  0.08877527  0.62157467     0.03500
C1746       C  0.49330405  0.12195589  0.61463611    -0.04300
C1747       C  0.51131390  0.13180665  0.58483554    -0.01400
C1748       C  0.51174107  0.10903483  0.56306852     0.03500
C1749       C  0.95671818  0.03205301  0.60781998     0.38200
C1750       C  0.52853333  0.16546870  0.57564178     0.38200
C1751       C  0.52938999  0.11990114  0.53197573     0.36600
C1752       C  0.95539568  0.07792219  0.65149498     0.36600
N1753       N  0.54336898  0.12855024  0.50716821    -0.38200
N1754       N  0.93972301  0.06886684  0.67516412    -0.38200
N1755       N  0.54221850  0.19225882  0.56819605    -0.37700
N1756       N  0.94194664  0.00505232  0.61423369    -0.37700
C1757       C  0.62932942  0.50531591  0.61322563    -0.04300
C1758       C  0.61396197  0.02266764  0.62089145    -0.01500
C1759       C  0.58942065  0.02038069  0.59997021     0.03500
C1760       C  0.58018015  0.50098485  0.57089261    -0.04300
C1761       C  0.59610707  0.48424037  0.56278468    -0.01400
C1762       C  0.62039190  0.48636960  0.58374351     0.03500
C1763       C  0.62253980  0.04218888  0.65088323     0.38200
C1764       C  0.58847887  0.46564266  0.53205876     0.38200
C1765       C  0.63683752  0.46956801  0.57426732     0.36600
C1766       C  0.57292219  0.03715560  0.60912855     0.36600
N1767       N  0.64989324  0.45612245  0.56680528    -0.38200
N1768       N  0.55967423  0.05044993  0.61641858    -0.38200
N1769       N  0.58248848  0.45083160  0.50758467    -0.37700
N1770       N  0.62903029  0.05806516  0.67459395    -0.37700
C1771       C  0.62554139  0.49816160  0.88707912    -0.04300
C1772       C  0.63450971  0.01453736  0.91816740    -0.01500
C1773       C  0.61170553  0.01542323  0.93903132     0.03500
C1774       C  0.57929474  0.99905293  0.92974688    -0.04300
C1775       C  0.57011203  0.48210958  0.89908900    -0.01400
C1776       C  0.59308417  0.48198420  0.87766357     0.03500
C1777       C  0.66708506  0.02918739  0.92978043     0.38200
C1778       C  0.53695505  0.46516086  0.88928532     0.38200
C1779       C  0.58321430  0.46582424  0.84552973     0.36600
C1780       C  0.62160885  0.03206008  0.97097222     0.36600
N1781       N  0.57526834  0.45293323  0.81989890    -0.38200
N1782       N  0.62956763  0.04536529  0.99638577    -0.38200
N1783       N  0.51048349  0.45153500  0.88157045    -0.37700
N1784       N  0.69301436  0.04075816  0.93912623    -0.37700
C1785       C  0.92189451  0.41854555  0.92400783    -0.04300
C1786       C  0.89994836  0.38652094  0.93285273    -0.01500
C1787       C  0.87628155  0.36608905  0.90995452     0.03500
C1788       C  0.87590682  0.37650371  0.87701124    -0.04300
C1789       C  0.89905289  0.40790638  0.86747205    -0.01400
C1790       C  0.92154151  0.42910045  0.89112521     0.03500
C1791       C  0.90134760  0.37455878  0.96573611     0.38200
C1792       C  0.90041404  0.41813659  0.83314280     0.38200
C1793       C  0.94503249  0.46144759  0.88137610     0.36600
C1794       C  0.85114216  0.33492165  0.92098614     0.36600
N1795       N  0.96389564  0.48723687  0.87367068    -0.38200
N1796       N  0.83085431  0.31022960  0.92983429    -0.38200
N1797       N  0.90204311  0.42646830  0.80571118    -0.37700
N1798       N  0.90263531  0.36474165  0.49174821    -0.37700
C1799       C  0.91829518  0.41480282  0.56998730    -0.04300
C1800       C  0.92892735  0.40832964  0.60037378    -0.01500
C1801       C  0.90699781  0.38563443  0.62324753     0.03500
C1802       C  0.87409988  0.36913507  0.61614523    -0.04300
C1803       C  0.86348247  0.37541978  0.58569678    -0.01400
C1804       C  0.88533513  0.39811100  0.56285465     0.03500
C1805       C  0.96243116  0.42584334  0.60877910     0.38200
C1806       C  0.83002569  0.35745632  0.57708941     0.38200
C1807       C  0.87372947  0.40321655  0.53133500     0.36600
C1808       C  0.91847873  0.38009107  0.65455835     0.36600
N1809       N  0.86435549  0.40711108  0.00619662    -0.38200
N1810       N  0.92815894  0.37601768  0.67937737    -0.38200
N1811       N  0.80335665  0.34301477  0.57025207    -0.37700
N1812       N  0.98914296  0.43983681  0.61549600    -0.37700
C1813       C  0.65838639  0.38376352  0.70112883    -0.04300
C1814       C  0.67867917  0.39944426  0.67338928    -0.01500
C1815       C  0.68180256  0.42820501  0.66060749     0.03500
C1816       C  0.66450048  0.44124559  0.67474899    -0.04300
C1817       C  0.64096165  0.42345144  0.69849425    -0.01400
C1818       C  0.63682751  0.39413532  0.71045803     0.03500
C1819       C  0.69687147  0.38698759  0.65771358     0.38200
C1820       C  0.62219567  0.43636366  0.71220555     0.38200
C1821       C  0.61096515  0.37600966  0.73343012     0.36600
C1822       C  0.70313495  0.44475248  0.63303095     0.36600
N1823       N  0.59025116  0.36360813  0.75219910    -0.38200
N1824       N  0.71995396  0.45793863  0.61090510    -0.38200
N1825       N  0.60748879  0.44681939  0.72333195    -0.37700
N1826       N  0.71106242  0.37731731  0.64378248    -0.37700
C1827       C  0.66426649  0.38872027  0.77858706    -0.04300
C1828       C  0.64383755  0.38277913  0.80643629    -0.01500
C1829       C  0.64362438  0.40856795  0.82350739     0.03500
C1830       C  0.66236977  0.44038561  0.81184567    -0.04300
C1831       C  0.68032226  0.44556440  0.78246508    -0.01400
C1832       C  0.68421859  0.42106128  0.76888542     0.03500
C1833       C  0.62215132  0.35030372  0.81729271     0.38200
C1834       C  0.69401877  0.47601969  0.76476126     0.38200
C1835       C  0.70914082  0.43055789  0.74461249     0.36600
C1836       C  0.62359620  0.40208595  0.85255351     0.36600
N1837       N  0.72921337  0.44125580  0.72507878    -0.38200
N1838       N  0.60738908  0.39683090  0.87557905    -0.38200
N1839       N  0.70500293  0.50023346  0.75076300    -0.37700
N1840       N  0.60465396  0.32468636  0.82671081    -0.37700
C1841       C  0.72504294  0.34459550  0.78468754    -0.04300
C1842       C  0.75630180  0.37014646  0.78005664    -0.01500
C1843       C  0.78233158  0.36775510  0.79172902     0.03500
C1844       C  0.77710801  0.34194058  0.81238509    -0.04300
C1845       C  0.74607422  0.32113913  0.82404217    -0.01400
C1846       C  0.72060950  0.32452263  0.81240295     0.02600
C1847       C  0.76133985  0.40175238  0.77384009     0.38200
C1848       C  0.74049447  0.29733074  0.84931791     0.38200
C1849       C  0.69419199  0.31506917  0.83481675     0.36600
C1850       C  0.81418907  0.39185710  0.78227685     0.36600
N1851       N  0.67397779  0.30815895  0.85391357    -0.38200
N1852       N  0.83948278  0.41120500  0.77434401    -0.38200
N1853       N  0.73606638  0.27826641  0.86937294    -0.37700
N1854       N  0.76677861  0.42785664  0.77111583    -0.37700
C1855       C  0.72493440  0.33701663  0.70671650    -0.04300
C1856       C  0.71950707  0.30794724  0.69223278    -0.01500
C1857       C  0.74518362  0.30390378  0.68290769     0.03500
C1858       C  0.77653900  0.33019624  0.68361094    -0.04300
C1859       C  0.78134563  0.36060038  0.69247012    -0.01400
C1860       C  0.75549881  0.36414060  0.70219715     0.03500
C1861       C  0.68864162  0.28544094  0.67884147     0.38200
C1862       C  0.81299733  0.38860945  0.69166271     0.38200
C1863       C  0.75991627  0.39587634  0.70018054     0.36600
C1864       C  0.73881913  0.27292417  0.67068726     0.36600
N1865       N  0.76620998  0.42207539  0.69593476    -0.38200
N1866       N  0.73339350  0.24804166  0.66115765    -0.38200
N1867       N  0.83817872  0.41096422  0.69093556    -0.37700
N1868       N  0.66551038  0.26804750  0.66474205    -0.37700
C1869       C  0.61203952  0.27622980  0.77825270    -0.04300
C1870       C  0.61625875  0.25619732  0.80109512    -0.01500
C1871       C  0.59050489  0.23320278  0.82060447     0.03500
C1872       C  0.55904423  0.22538437  0.81297178    -0.04300
C1873       C  0.55468487  0.24123807  0.78537420    -0.01400
C1874       C  0.58056758  0.26866150  0.77140119     0.03500
C1875       C  0.64547251  0.25551424  0.80155751     0.38200
C1876       C  0.52414178  0.22778541  0.76858111     0.38200
C1877       C  0.57376965  0.28780865  0.74881579     0.36600
C1878       C  0.59683963  0.21737310  0.84779471     0.36600
N1879       N  0.56623964  0.30121573  0.73043630    -0.38200
N1880       N  0.60220494  0.20501205  0.86954868    -0.38200
N1881       N  0.50010774  0.21697801  0.75462441    -0.37700
N1882       N  0.66781109  0.25302528  0.80187781    -0.37700
C1883       C  0.61563251  0.27446786  0.70280883    -0.04300
C1884       C  0.59739780  0.27961925  0.67845466    -0.01500
C1885       C  0.56833450  0.25367489  0.66669989     0.03500
C1886       C  0.55789687  0.22227390  0.67777786    -0.04300
C1887       C  0.57791397  0.21650239  0.69827515    -0.01400
C1888       C  0.60703684  0.24227905  0.70976199     0.03500
C1889       C  0.60740211  0.31121648  0.66544749     0.38200
C1890       C  0.56808172  0.18398829  0.70844785     0.38200
C1891       C  0.62954522  0.23515491  0.72520186     0.36600
C1892       C  0.54888306  0.25929791  0.64332099     0.36600
N1893       N  0.64752634  0.22830053  0.73527568    -0.38200
N1894       N  0.53340522  0.26380095  0.62467334    -0.38200
N1895       N  0.56011739  0.15804708  0.71661741    -0.37700
N1896       N  0.61405130  0.33549128  0.65323815    -0.37700
C1897       C  0.89197118  0.17378989  0.80052913    -0.04300
C1898       C  0.88830383  0.15277825  0.82719832    -0.01500
C1899       C  0.91531809  0.15549541  0.84383383     0.03500
C1900       C  0.94604360  0.18153757  0.83675178    -0.04300
C1901       C  0.94796050  0.20654856  0.81657322    -0.01400
C1902       C  0.92232489  0.20120192  0.79592643     0.03500
C1903       C  0.85715729  0.12704204  0.83657362     0.38200
C1904       C  0.97573794  0.23851450  0.81795252     0.38200
C1905       C  0.92849313  0.22380044  0.76923732     0.36600
C1906       C  0.91099047  0.13145180  0.86824752     0.36600
N1907       N  0.93553896  0.24204916  0.74763356    -0.38200
N1908       N  0.90726862  0.11216995  0.88774618    -0.38200
N1909       N  0.99765997  0.26409661  0.81920150    -0.37700
N1910       N  0.83285568  0.10630261  0.84531109    -0.37700
C1911       C  0.89050687  0.16456000  0.72325440    -0.04300
C1912       C  0.90464839  0.18492643  0.69506390    -0.01500
C1913       C  0.92970865  0.18485591  0.67740443     0.03500
C1914       C  0.94186876  0.16547166  0.68807014    -0.04300
C1915       C  0.92788091  0.14491869  0.71548887    -0.01400
C1916       C  0.90160601  0.14336796  0.73201049     0.03500
C1917       C  0.89516051  0.20747908  0.68448449     0.38200
C1918       C  0.94148584  0.12618365  0.72766349     0.38200
C1919       C  0.88580135  0.11876297  0.75706788     0.36600
C1920       C  0.94326299  0.20500437  0.64813683     0.36600
N1921       N  0.87454781  0.09856881  0.77679503    -0.38200
N1922       N  0.95386879  0.22090222  0.62467510    -0.38200
N1923       N  0.95261550  0.11161953  0.73766795    -0.37700
N1924       N  0.88902733  0.22618605  0.67463318    -0.37700
C1925       C  0.83585497  0.27279570  0.68705133    -0.04300
C1926       C  0.81732033  0.24125201  0.67486698    -0.01500
C1927       C  0.81841439  0.21565053  0.69068496     0.03500
C1928       C  0.83835464  0.22155526  0.71896570    -0.04300
C1929       C  0.85954116  0.25402299  0.72836193    -0.01400
C1930       C  0.85721546  0.27915575  0.71348524     0.03500
C1931       C  0.79647329  0.23508818  0.64642905     0.38200
C1932       C  0.88361704  0.26239732  0.75384617     0.38200
C1933       C  0.87544151  0.31143196  0.72699513     0.36600
C1934       C  0.79736079  0.18333660  0.67873164     0.36600
N1935       N  0.88966928  0.33690676  0.73838370    -0.38200
N1936       N  0.78020070  0.15792011  0.66841393    -0.38200
N1937       N  0.90292989  0.27100337  0.77441902    -0.37700
N1938       N  0.77993659  0.23018476  0.62366265    -0.37700
C1939       C  0.82572758  0.21728129  0.79379579    -0.04300
C1940       C  0.84422173  0.23494504  0.82168800    -0.01500
C1941       C  0.84207571  0.26116737  0.83442110     0.03500
C1942       C  0.82270286  0.27141204  0.81827897    -0.04300
C1943       C  0.80174743  0.25136789  0.79262174    -0.01400
C1944       C  0.80224904  0.22383484  0.78191491     0.03500
C1945       C  0.86696644  0.22766493  0.83648318     0.38200
C1946       C  0.77993159  0.25891191  0.77570975     0.38200
C1947       C  0.77854406  0.20288614  0.75779110     0.36600
C1948       C  0.85981387  0.27699290  0.86451217     0.36600
N1949       N  0.75931734  0.18789678  0.73803924    -0.38200
N1950       N  0.87406099  0.28906068  0.88864249    -0.38200
N1951       N  0.76244415  0.26453260  0.76193189    -0.37700
N1952       N  0.88530805  0.22247049  0.84888965    -0.37700
C1953       C  0.73245589  0.05437698  0.83244152    -0.04300
C1954       C  0.75550799  0.05141386  0.81353919    -0.01500
C1955       C  0.77819971  0.07728626  0.79439283     0.03500
C1956       C  0.78242931  0.10822430  0.79840150    -0.04300
C1957       C  0.76437251  0.11267760  0.82335027    -0.01400
C1958       C  0.73831730  0.08581817  0.83868704     0.03500
C1959       C  0.75719662  0.02225638  0.81446490     0.38200
C1960       C  0.77079405  0.14452713  0.83202159     0.38200
C1961       C  0.71767098  0.09108934  0.86042294     0.36600
C1962       C  0.79717513  0.07148989  0.77071413     0.36600
N1963       N  0.70135405  0.09568849  0.87761130    -0.38200
N1964       N  0.81108055  0.06550633  0.75148831    -0.38200
N1965       N  0.77495057  0.16936264  0.84002801    -0.37700
N1966       N  0.75887866  0.99922939  0.81518665    -0.37700
C1967       C  0.77845512  0.10957922  0.72095985    -0.04300
C1968       C  0.78428055  0.09437396  0.69361971    -0.01500
C1969       C  0.75874956  0.06935786  0.67538236     0.03500
C1970       C  0.72706342  0.05850443  0.68447755    -0.04300
C1971       C  0.72105293  0.07362097  0.71115706    -0.01400
C1972       C  0.74626595  0.09980783  0.72814053     0.03500
C1973       C  0.81635595  0.10333064  0.68444400     0.38200
C1974       C  0.68874546  0.06086374  0.72274363     0.38200
C1975       C  0.73793583  0.11668571  0.75217220     0.36600
C1976       C  0.76503958  0.05445308  0.64722504     0.36600
N1977       N  0.72892541  0.12847035  0.77097511    -0.38200
N1978       N  0.76997186  0.54269381  0.62462995    -0.38200
N1979       N  0.66321308  0.05050616  0.73270542    -0.37700
N1980       N  0.84163507  0.10990736  0.67633967    -0.37700
C1981       C  0.83407302  0.66622604  0.29180904     0.46500
H1982       H  0.83337876  0.66665080  0.31949138    -0.02600
C1983       C  0.83543656  0.66460197  0.22681145     0.46500
H1984       H  0.83603966  0.66398541  0.19918435    -0.02600
C1985       C  0.83245901  0.69417907  0.27499743    -0.16300
C1986       C  0.86445139  0.66772173  0.27802286    -0.16000
C1987       C  0.80594955  0.63564776  0.27671151    -0.16400
C1988       C  0.83522123  0.69443849  0.24058775    -0.16400
C1989       C  0.86466019  0.66561387  0.24342657    -0.15900
C1990       C  0.80566078  0.63518563  0.24204951    -0.16300
C1991       C  0.66794391  0.83319905  0.20936057     0.46500
H1992       H  0.66836839  0.83162281  0.18181026    -0.02600
C1993       C  0.66594291  0.83426290  0.27423384     0.46500
H1994       H  0.66456505  0.83498881  0.30167376    -0.02600
C1995       C  0.64062331  0.80187999  0.22393189    -0.16300
C1996       C  0.69895772  0.83834528  0.22640587    -0.16000
C1997       C  0.66267353  0.86039029  0.22308912    -0.16400
C1998       C  0.63934467  0.80231326  0.25838187    -0.16400
C1999       C  0.69801484  0.83943592  0.26131368    -0.15900
C2000       C  0.66297615  0.86154589  0.25788388    -0.16300
C2001       C  0.85074159  0.84564870  0.14041941     0.81200
N2002       N  0.85395507  0.82104333  0.15214566    -0.77100
C2003       C  0.83198530  0.79909119  0.17332332     0.83700
N2004       N  0.80705955  0.80205158  0.18333601    -0.77000
C2005       C  0.80370534  0.82666126  0.17206539     0.83800
N2006       N  0.82552545  0.84820962  0.15041564    -0.78700
C2007       C  0.85115280  0.85409532  0.35319881     0.81200
N2008       N  0.82824794  0.85998557  0.34197633    -0.77100
C2009       C  0.80351800  0.83735164  0.32363610     0.83700
N2010       N  0.80179350  0.80901986  0.31716154    -0.77000
C2011       C  0.82457008  0.80278490  0.32754836     0.83800
N2012       N  0.84924692  0.82568753  0.34570148    -0.78700
C2013       C  0.64995709  0.99748678  0.36514110     0.81200
N2014       N  0.67859890  0.52500779  0.36029829    -0.77100
C2015       C  0.70170565  0.52462854  0.34174491     0.83700
N2016       N  0.69523385  0.49654164  0.32790306    -0.77000
C2017       C  0.66690937  0.96913016  0.33102290     0.83800
N2018       N  0.64412837  0.96959535  0.35005314    -0.78700
C2019       C  0.65279102  0.00438193  0.13656732     0.81200
N2020       N  0.67842740  0.53162444  0.14889375    -0.77100
C2021       C  0.70027270  0.52952996  0.16852175     0.83700
N2022       N  0.69611895  0.00019586  0.17589162    -0.77000
C2023       C  0.67039387  0.97314742  0.16425424     0.83800
N2024       N  0.64884569  0.97538843  0.14493579    -0.78700
C2025       C  0.49512367  0.64674244  0.13855535     0.81200
N2026       N  0.52394819  0.67201257  0.14711460    -0.77100
C2027       C  0.52628624  0.69549100  0.16764609     0.83700
N2028       N  0.49957484  0.69360986  0.17999594    -0.77000
C2029       C  0.97059857  0.66818017  0.17216179     0.83800
N2030       N  0.96838973  0.64466657  0.15151894    -0.78700
C2031       C  0.00356210  0.65747279  0.36962672     0.81200
N2032       N  0.53044684  0.67877013  0.35287238    -0.77100
C2033       C  0.53047946  0.70158663  0.33285006     0.83700
N2034       N  0.00343991  0.70274066  0.33037654    -0.77000
C2035       C  0.97621016  0.68167784  0.34592334     0.83800
N2036       N  0.97648012  0.65878421  0.36547214    -0.78700
Fe2037     Fe  0.99895663  0.95685560  0.99978926     1.65800
Fe2038     Fe  0.95711060  0.99627465  0.99832298     1.73200
Fe2039     Fe  0.53822771  0.53902060  0.00019547     1.54400
O2040       O  0.55760894  0.52606809  0.03891743    -0.80700
O2041       O  0.97228303  0.53433381  0.46534961    -0.79000
O2042       O  0.53506380  0.97298152  0.03507876    -0.83200
O2043       O  0.53187600  0.97137548  0.46161480    -0.78000
O2044       O  0.52149687  0.55873867  0.03487823    -0.79800
O2045       O  0.94086537  0.96507463  0.45792238    -0.82600
C2046       C  0.55537251  0.49839597  0.45330886     0.98200
C2047       C  0.55569907  0.99985115  0.04735075     1.05700
O2048       O  0.99813762  0.99739832  0.99947312    -1.11500
O2049       O  0.93528346  0.95824199  0.03161647    -0.74000
O2050       O  0.96613548  0.93707101  0.03811930    -0.77500
O2051       O  0.56017821  0.52474833  0.46560603    -0.78100
C2052       C  0.94147867  0.93831113  0.04529879     0.97100
O2053       O  0.96315512  0.93492511  0.46426050    -0.76100
O2054       O  0.96882158  0.52764610  0.03824707    -0.81300
C2055       C  0.99858195  0.55589256  0.45350553     0.99700
C2056       C  0.49489819  0.55235542  0.04697654     1.05700
O2057       O  0.52484478  0.55817453  0.46149438    -0.76900
C2058       C  0.94364867  0.94116883  0.44998015     1.04000
C2059       C  0.00308489  0.63181858  0.39122284    -0.04300
C2060       C  0.51713001  0.61380880  0.38025986    -0.01500
C2061       C  0.51555846  0.58894061  0.40041703     0.03500
C2062       C  0.99897423  0.58087346  0.43112966    -0.04300
C2063       C  0.98449500  0.59838442  0.44175794    -0.01400
C2064       C  0.98743587  0.62427836  0.42252720     0.03500
C2065       C  0.53250584  0.62020802  0.34790301     0.38200
C2066       C  0.96726078  0.59048871  0.47315000     0.38200
C2067       C  0.97598432  0.64439495  0.43615044     0.36600
C2068       C  0.53015244  0.57091836  0.38904492     0.36600
N2069       N  0.96717870  0.66060781  0.44728098    -0.38200
N2070       N  0.54178231  0.55649245  0.38010194    -0.38200
N2071       N  0.95331422  0.58411045  0.49803056    -0.37700
N2072       N  0.54478239  0.62529870  0.32208283    -0.37700
C2073       C  0.49424759  0.57598933  0.07066987    -0.04300
C2074       C  0.97514377  0.56582512  0.09979459    -0.01500
C2075       C  0.97468367  0.58870647  0.12163866     0.03500
C2076       C  0.49335236  0.62204873  0.11461385    -0.04300
C2077       C  0.51145596  0.63191031  0.08487249    -0.01400
C2078       C  0.51192564  0.60914450  0.06313006     0.03500
C2079       C  0.95670187  0.53197861  0.10788423     0.38200
C2080       C  0.52873275  0.66557922  0.07570755     0.38200
C2081       C  0.52967114  0.62002564  0.03209540     0.36600
C2082       C  0.95551631  0.57787437  0.15164161     0.36600
N2083       N  0.54372484  0.62868582  0.00733265    -0.38200
N2084       N  0.93994349  0.56883703  0.17538206    -0.38200
N2085       N  0.54246727  0.69237467  0.06828525    -0.37700
N2086       N  0.94195274  0.50498141  0.11431995    -0.37700
C2087       C  0.62930962  0.00529851  0.11314455    -0.04300
C2088       C  0.61394203  0.52264505  0.12097565    -0.01500
C2089       C  0.58940975  0.52035438  0.10003564     0.03500
C2090       C  0.58013343  0.00096122  0.07085267    -0.04300
C2091       C  0.59604454  0.98420236  0.06273546    -0.01400
C2092       C  0.62034676  0.98634037  0.08366977     0.03500
C2093       C  0.62248713  0.54214460  0.15098175     0.38200
C2094       C  0.58838651  0.96558329  0.03202130     0.38200
C2095       C  0.63678187  0.96953266  0.07417456     0.36600
C2096       C  0.57286274  0.53707741  0.10920368     0.36600
N2097       N  0.64982763  0.95608112  0.06669652    -0.38200
N2098       N  0.55957100  0.55032456  0.11650440    -0.38200
N2099       N  0.58237466  0.95075688  0.00755601    -0.37700
N2100       N  0.62895717  0.55800191  0.17470537    -0.37700
C2101       C  0.62547865  0.99807597  0.38713287    -0.04300
C2102       C  0.63459415  0.51474891  0.41805703    -0.01500
C2103       C  0.61178471  0.51561803  0.43892774     0.03500
C2104       C  0.57935174  0.49911099  0.42972545    -0.04300
C2105       C  0.57007003  0.98214440  0.39906314    -0.01400
C2106       C  0.59304215  0.98200695  0.37765009     0.03500
C2107       C  0.66720332  0.52956391  0.42960065     0.38200
C2108       C  0.53693145  0.96530790  0.38919286     0.38200
C2109       C  0.58319787  0.96594343  0.34546551     0.36600
C2110       C  0.62171422  0.53238482  0.47079844     0.36600
N2111       N  0.57527234  0.95312793  0.31979507    -0.38200
N2112       N  0.62969049  0.54579411  0.49615510    -0.38200
N2113       N  0.51047462  0.95176912  0.38142150    -0.37700
N2114       N  0.69315995  0.54127421  0.43889373    -0.37700
C2115       C  0.92186487  0.91855586  0.42410017    -0.04300
C2116       C  0.89989567  0.88655024  0.43298934    -0.01500
C2117       C  0.87620553  0.86610470  0.41011549     0.03500
C2118       C  0.87582123  0.87648987  0.37716030    -0.04300
C2119       C  0.89899938  0.90786263  0.36757436    -0.01400
C2120       C  0.92150291  0.92907658  0.39120385     0.03500
C2121       C  0.90129845  0.87462424  0.46589208     0.38200
C2122       C  0.90040027  0.91802206  0.33320990     0.38200
C2123       C  0.94499122  0.96141209  0.38142003     0.36600
C2124       C  0.85107503  0.83494305  0.42117146     0.36600
N2125       N  0.96384603  0.98719581  0.37368906    -0.38200
N2126       N  0.83079909  0.81025305  0.43004043    -0.38200
N2127       N  0.90206358  0.92627932  0.30574386    -0.37700
N2128       N  0.90259538  0.86484437  0.99190553    -0.37700
C2129       C  0.91837616  0.91491823  0.07003703    -0.04300
C2130       C  0.92900928  0.90838374  0.10038651    -0.01500
C2131       C  0.90707279  0.88570241  0.12326539     0.03500
C2132       C  0.87416652  0.86928050  0.11620545    -0.04300
C2133       C  0.86354884  0.87563314  0.08579475    -0.01400
C2134       C  0.88540928  0.89830512  0.06294603     0.03500
C2135       C  0.96252488  0.92581343  0.10874517     0.38200
C2136       C  0.83008032  0.85775587  0.07722513     0.38200
C2137       C  0.87380172  0.90346139  0.03145307     0.36600
C2138       C  0.91856068  0.88009126  0.15453505     0.36600
N2139       N  0.86443212  0.90740483  0.50633480    -0.38200
N2140       N  0.92825111  0.87596472  0.17931837    -0.38200
N2141       N  0.80340160  0.84338621  0.07041786    -0.37700
N2142       N  0.98924626  0.93973856  0.11542389    -0.37700
C2143       C  0.65846725  0.88380676  0.20110849    -0.04300
C2144       C  0.67886025  0.89953981  0.17344904    -0.01500
C2145       C  0.68192031  0.92824598  0.16058461     0.03500
C2146       C  0.66450115  0.94121081  0.17459816    -0.04300
C2147       C  0.64091234  0.92338625  0.19828528    -0.01400
C2148       C  0.63683538  0.89411827  0.21033133     0.03500
C2149       C  0.69734073  0.88727908  0.15804814     0.38200
C2150       C  0.62203111  0.93622510  0.21185669     0.38200
C2151       C  0.61097557  0.87600853  0.23331059     0.36600
C2152       C  0.70332131  0.94482700  0.13306662     0.36600
N2153       N  0.59026754  0.86363893  0.25209075    -0.38200
N2154       N  0.72019155  0.95803562  0.11098320    -0.38200
N2155       N  0.60722698  0.94662017  0.22286457    -0.37700
N2156       N  0.71178621  0.87777513  0.14434836    -0.37700
C2157       C  0.66419369  0.88867517  0.27858125    -0.04300
C2158       C  0.64374710  0.88270511  0.30642110    -0.01500
C2159       C  0.64352566  0.90847801  0.32351562     0.03500
C2160       C  0.66225135  0.94029938  0.31186058    -0.04300
C2161       C  0.68018364  0.94549882  0.28246416    -0.01400
C2162       C  0.68412304  0.92102505  0.26888741     0.03500
C2163       C  0.62205064  0.85021879  0.31723878     0.38200
C2164       C  0.69382859  0.97594960  0.26475720     0.38200
C2165       C  0.70908032  0.93056925  0.24464665     0.36600
C2166       C  0.62351492  0.90197817  0.35257988     0.36600
N2167       N  0.72918181  0.94129828  0.22514528    -0.38200
N2168       N  0.60732377  0.89670888  0.37562218    -0.38200
N2169       N  0.70477128  0.00015885  0.25075500    -0.37700
N2170       N  0.60454277  0.82458959  0.32661901    -0.37700
C2171       C  0.72490111  0.84448135  0.28480358    -0.04300
C2172       C  0.75611271  0.87022697  0.28053064    -0.01500
C2173       C  0.78217713  0.86790302  0.29222888     0.03500
C2174       C  0.77697091  0.84189344  0.31256586    -0.04300
C2175       C  0.74588788  0.82084074  0.32395174    -0.01400
C2176       C  0.72040443  0.82419114  0.31231782     0.02600
C2177       C  0.76095069  0.90181635  0.27471546     0.38200
C2178       C  0.74026216  0.79682272  0.34898663     0.38200
C2179       C  0.69391513  0.81457062  0.33467006     0.36600
C2180       C  0.81404027  0.89227721  0.28313906     0.36600
N2181       N  0.67364342  0.80754117  0.35372139    -0.38200
N2182       N  0.83933787  0.91185781  0.27549994    -0.38200
N2183       N  0.73579455  0.77759073  0.36884921    -0.37700
N2184       N  0.76618025  0.92787493  0.27231034    -0.37700
C2185       C  0.72501515  0.83710196  0.20680502    -0.04300
C2186       C  0.71953636  0.80815409  0.19193064    -0.01500
C2187       C  0.74518222  0.80407814  0.18254708     0.03500
C2188       C  0.77658312  0.83025147  0.18363409    -0.04300
C2189       C  0.78150025  0.86059224  0.19293293    -0.01400
C2190       C  0.75569075  0.86417546  0.20270103     0.03500
C2191       C  0.68868934  0.78583589  0.17835528     0.38200
C2192       C  0.81323566  0.88849210  0.19251056     0.38200
C2193       C  0.76032058  0.89601140  0.20112231     0.36600
C2194       C  0.73877048  0.77321785  0.16988641     0.36600
N2195       N  0.76682990  0.92231947  0.19724728    -0.38200
N2196       N  0.73330914  0.74843243  0.15999423    -0.38200
N2197       N  0.83848638  0.91075564  0.19208369    -0.37700
N2198       N  0.66556649  0.76860716  0.16414721    -0.37700
C2199       C  0.61197709  0.77612959  0.27807541    -0.04300
C2200       C  0.61616918  0.75597845  0.30077075    -0.01500
C2201       C  0.59042116  0.73296311  0.32026981     0.03500
C2202       C  0.55896881  0.72524525  0.31274548    -0.04300
C2203       C  0.55461503  0.74118928  0.28522953    -0.01400
C2204       C  0.58051379  0.76861606  0.27127561     0.03500
C2205       C  0.64534622  0.75522169  0.30109654     0.38200
C2206       C  0.52405543  0.72783006  0.26849015     0.38200
C2207       C  0.57373554  0.78781771  0.24875174     0.36600
C2208       C  0.59675548  0.71700515  0.34732795     0.36600
N2209       N  0.56620190  0.80125367  0.23041705    -0.38200
N2210       N  0.60212307  0.70454014  0.36897363    -0.38200
N2211       N  0.50000966  0.71710087  0.25456974    -0.37700
N2212       N  0.66766531  0.75269800  0.30132966    -0.37700
C2213       C  0.61567767  0.77455057  0.20266116    -0.04300
C2214       C  0.59737231  0.77972451  0.17842595    -0.01500
C2215       C  0.56827013  0.75378865  0.16674233     0.03500
C2216       C  0.55789553  0.72237257  0.17773216    -0.04300
C2217       C  0.57801599  0.71658996  0.19804858    -0.01400
C2218       C  0.60716101  0.74236774  0.20948167     0.03500
C2219       C  0.60737403  0.81132988  0.16544524     0.38200
C2220       C  0.56827442  0.68406620  0.20809370     0.38200
C2221       C  0.62978418  0.73527661  0.22468466     0.36600
C2222       C  0.54872483  0.75943695  0.14352471     0.36600
N2223       N  0.64786572  0.72847707  0.23456428    -0.38200
N2224       N  0.53317242  0.76396462  0.12500837    -0.38200
N2225       N  0.56038407  0.65811627  0.21616086    -0.37700
N2226       N  0.61403007  0.83561303  0.15325190    -0.37700
C2227       C  0.89202804  0.67389304  0.30051743    -0.04300
C2228       C  0.88834755  0.65290220  0.32721321    -0.01500
C2229       C  0.91535189  0.65562714  0.34387998     0.03500
C2230       C  0.94608613  0.68164960  0.33678778    -0.04300
C2231       C  0.94802098  0.70664342  0.31655932    -0.01400
C2232       C  0.92238822  0.70129188  0.29590272     0.03500
C2233       C  0.85719476  0.62717937  0.33659107     0.38200
C2234       C  0.97581151  0.73860326  0.31789577     0.38200
C2235       C  0.92855963  0.72388214  0.26920276     0.36600
C2236       C  0.91100163  0.63161711  0.36834765     0.36600
N2237       N  0.93560499  0.74212704  0.24759525    -0.38200
N2238       N  0.90725365  0.61235908  0.38788882    -0.38200
N2239       N  0.99774394  0.76418079  0.31910648    -0.37700
N2240       N  0.83288755  0.60645112  0.34533067    -0.37700
C2241       C  0.89056303  0.66462441  0.22324576    -0.04300
C2242       C  0.90471271  0.68497426  0.19504559    -0.01500
C2243       C  0.92975877  0.68487163  0.17739074     0.03500
C2244       C  0.94190066  0.66547710  0.18807611    -0.04300
C2245       C  0.92791303  0.64495021  0.21551256    -0.01400
C2246       C  0.90164666  0.64342483  0.23202497     0.03500
C2247       C  0.89525207  0.70754577  0.18445663     0.38200
C2248       C  0.94151379  0.62622144  0.22771876     0.38200
C2249       C  0.88583917  0.61884170  0.25710274     0.36600
C2250       C  0.94332185  0.70500133  0.14811201     0.36600
N2251       N  0.87458424  0.59866476  0.27684820    -0.38200
N2252       N  0.95393758  0.72088417  0.12464209    -0.38200
N2253       N  0.95264184  0.61166533  0.23775123    -0.37700
N2254       N  0.88913968  0.72626749  0.17460412    -0.37700
C2255       C  0.83591935  0.77288634  0.18700974    -0.04300
C2256       C  0.81740788  0.74134705  0.17481048    -0.01500
C2257       C  0.81851780  0.71575220  0.19062009     0.03500
C2258       C  0.83844794  0.72166078  0.21891081    -0.04300
C2259       C  0.85962267  0.75412819  0.22831481    -0.01400
C2260       C  0.85728274  0.77925459  0.21344413     0.03500
C2261       C  0.79656733  0.73518062  0.14636593     0.38200
C2262       C  0.88369496  0.76250461  0.25380485     0.38200
C2263       C  0.87549236  0.81152858  0.22696388     0.36600
C2264       C  0.79748318  0.68343977  0.17865184     0.36600
N2265       N  0.88970795  0.83700098  0.23836076    -0.38200
N2266       N  0.78033824  0.65802503  0.16832027    -0.38200
N2267       N  0.90300323  0.77110534  0.27438234    -0.37700
N2268       N  0.78003808  0.73027541  0.12359246    -0.37700
C2269       C  0.82579524  0.71739587  0.29374376    -0.04300
C2270       C  0.84425986  0.73503424  0.32166351    -0.01500
C2271       C  0.84206681  0.76121540  0.33444100     0.03500
C2272       C  0.82269440  0.77146351  0.31830578    -0.04300
C2273       C  0.80178210  0.75145552  0.29260306    -0.01400
C2274       C  0.80231838  0.72395064  0.28185608     0.03500
C2275       C  0.86701728  0.72776804  0.33645083     0.38200
C2276       C  0.77997022  0.75900637  0.27569337     0.38200
C2277       C  0.77864156  0.70302682  0.25769610     0.36600
C2278       C  0.85974328  0.77698610  0.36458040     0.36600
N2279       N  0.75943646  0.68805664  0.23791751    -0.38200
N2280       N  0.87393642  0.78901039  0.38875068    -0.38200
N2281       N  0.76248547  0.76463195  0.26191712    -0.37700
N2282       N  0.88536905  0.72258502  0.34885129    -0.37700
C2283       C  0.73251275  0.55449460  0.33238251    -0.04300
C2284       C  0.75558549  0.55154119  0.31351055    -0.01500
C2285       C  0.77827262  0.57741051  0.29436022     0.03500
C2286       C  0.78249041  0.60834432  0.29835801    -0.04300
C2287       C  0.76441670  0.61279461  0.32328638    -0.01400
C2288       C  0.73835161  0.58593204  0.33860471     0.03500
C2289       C  0.75730105  0.52239981  0.31447328     0.38200
C2290       C  0.77083106  0.64464337  0.33195113     0.38200
C2291       C  0.71766996  0.59119877  0.36028790     0.36600
C2292       C  0.79724812  0.57161328  0.27068232     0.36600
N2293       N  0.70132752  0.59580279  0.37742934    -0.38200
N2294       N  0.81115039  0.56562917  0.25145282    -0.38200
N2295       N  0.77498087  0.66947813  0.33995027    -0.37700
N2296       N  0.75900544  0.49938614  0.31522439    -0.37700
C2297       C  0.77850750  0.60968918  0.22093133    -0.04300
C2298       C  0.78431302  0.59446520  0.19359473    -0.01500
C2299       C  0.75876744  0.56942837  0.17539078     0.03500
C2300       C  0.72708831  0.55856211  0.18452845    -0.04300
C2301       C  0.72109821  0.57370180  0.21119998    -0.01400
C2302       C  0.74632270  0.59992106  0.22813320     0.03500
C2303       C  0.81638269  0.60342684  0.18438827     0.38200
C2304       C  0.68880253  0.56094180  0.22282704     0.38200
C2305       C  0.73800815  0.61683936  0.25212907     0.36600
C2306       C  0.76503430  0.55451900  0.14722146     0.36600
N2307       N  0.72900826  0.62865669  0.27090272    -0.38200
N2308       N  0.76998751  0.04262270  0.12465030    -0.38200
N2309       N  0.66328015  0.55058286  0.23281977    -0.37700
N2310       N  0.84165894  0.61001098  0.17626362    -0.37700
C2311       C  0.83407665  0.66622687  0.79180631     0.46500
H2312       H  0.83338379  0.66665281  0.81948879    -0.02600
C2313       C  0.83543812  0.66460115  0.72680876     0.46500
H2314       H  0.83604052  0.66398386  0.69918161    -0.02600
C2315       C  0.83246127  0.69417909  0.77499433    -0.16300
C2316       C  0.86445478  0.66772262  0.77801905    -0.16000
C2317       C  0.80595296  0.63564772  0.77671016    -0.16400
C2318       C  0.83522197  0.69443738  0.74058460    -0.16400
C2319       C  0.86466268  0.66561450  0.74342277    -0.15900
C2320       C  0.80566357  0.63518450  0.74204803    -0.16300
C2321       C  0.66793443  0.83319329  0.70935100     0.46500
H2322       H  0.66835598  0.83161180  0.68180185    -0.02600
C2323       C  0.66594154  0.83426540  0.77422543     0.46500
H2324       H  0.66456565  0.83499509  0.80166405    -0.02600
C2325       C  0.64061640  0.80187563  0.72392801    -0.16300
C2326       C  0.69895024  0.83834241  0.72639356    -0.16000
C2327       C  0.66266431  0.86038581  0.72307813    -0.16400
C2328       C  0.63934190  0.80231375  0.75837811    -0.16400
C2329       C  0.69801265  0.83943790  0.76130132    -0.15900
C2330       C  0.66297114  0.86154516  0.75787291    -0.16300
C2331       C  0.85073702  0.84564485  0.64041829     0.81200
N2332       N  0.85394980  0.82103883  0.65214347    -0.77100
C2333       C  0.83197983  0.79908669  0.67332086     0.83700
N2334       N  0.80705531  0.80204841  0.68333528    -0.77000
C2335       C  0.80370093  0.82665818  0.67206494     0.83800
N2336       N  0.82552093  0.84820575  0.65041452    -0.78700
C2337       C  0.85114978  0.85409458  0.85319170     0.81200
N2338       N  0.82824835  0.85998718  0.84196263    -0.77100
C2339       C  0.80351961  0.83735374  0.82362063     0.83700
N2340       N  0.80179276  0.80902011  0.81715039    -0.77000
C2341       C  0.82456512  0.80278179  0.82754484     0.83800
N2342       N  0.84924099  0.82568434  0.84569951    -0.78700
C2343       C  0.64995367  0.99748665  0.86513162     0.81200
N2344       N  0.67859894  0.52500985  0.86029539    -0.77100
C2345       C  0.70170520  0.52463104  0.84174050     0.83700
N2346       N  0.69523223  0.49654514  0.82789513    -0.77000
C2347       C  0.66690376  0.96912999  0.83101047     0.83800
N2348       N  0.64412223  0.96959616  0.85003910    -0.78700
C2349       C  0.65279562  0.00438782  0.63656667     0.81200
N2350       N  0.67843432  0.53162715  0.64888730    -0.77100
C2351       C  0.70027854  0.52953074  0.66851520     0.83700
N2352       N  0.69611717  0.00019378  0.67589394    -0.77000
C2353       C  0.67039118  0.97314760  0.66425411     0.83800
N2354       N  0.64884611  0.97539256  0.64493447    -0.78700
C2355       C  0.49511765  0.64673305  0.63855465     0.81200
N2356       N  0.52394194  0.67200342  0.64711401    -0.77100
C2357       C  0.52627927  0.69548228  0.66764412     0.83700
N2358       N  0.49956777  0.69360128  0.67999286    -0.77000
C2359       C  0.97059646  0.66818058  0.67214942     0.83800
N2360       N  0.96838796  0.64466650  0.65150768    -0.78700
C2361       C  0.00356772  0.65748017  0.86962895     0.81200
N2362       N  0.53045071  0.67877625  0.85287721    -0.77100
C2363       C  0.53048255  0.70159223  0.83285496     0.83700
N2364       N  0.00344403  0.70274525  0.83037587    -0.77000
C2365       C  0.97621437  0.68168214  0.84592244     0.83800
N2366       N  0.97648520  0.65879018  0.86547319    -0.78700
Fe2367     Fe  0.99895773  0.95685700  0.49979661     1.65800
Fe2368     Fe  0.95710913  0.99627333  0.49832500     1.73200
Fe2369     Fe  0.53822502  0.53901766  0.50019403     1.54400
O2370       O  0.55761008  0.52606795  0.53891438    -0.80700
O2371       O  0.97228457  0.53434276  0.96535298    -0.79000
O2372       O  0.53506458  0.97298605  0.53508904    -0.83200
O2373       O  0.53187428  0.97137915  0.96160324    -0.78000
O2374       O  0.52149276  0.55873275  0.53487797    -0.79800
O2375       O  0.94086574  0.96507785  0.95791746    -0.82600
C2376       C  0.55537306  0.49839778  0.95330785     0.98200
C2377       C  0.55570174  0.99985781  0.54735519     1.05700
O2378       O  0.99813710  0.99739886  0.49947611    -1.11500
O2379       O  0.93528296  0.95824262  0.53162065    -0.74000
O2380       O  0.96613533  0.93707249  0.53812575    -0.77500
O2381       O  0.56018131  0.52474981  0.96560875    -0.78100
C2382       C  0.94147807  0.93831219  0.54530400     0.97100
O2383       O  0.96315264  0.93492571  0.96425389    -0.76100
O2384       O  0.96882092  0.52764154  0.53824408    -0.81300
C2385       C  0.99858423  0.55590069  0.95350938     0.99700
C2386       C  0.49489345  0.55234861  0.54697519     1.05700
O2387       O  0.52484932  0.55817833  0.96149484    -0.76900
C2388       C  0.94364708  0.94117103  0.94997402     1.04000
C2389       C  0.00309076  0.63182712  0.89122599    -0.04300
C2390       C  0.51713126  0.61381286  0.88026146    -0.01500
C2391       C  0.51556002  0.58894457  0.90041803     0.03500
C2392       C  0.99897805  0.58088246  0.93113416    -0.04300
C2393       C  0.98450787  0.59840080  0.94176657    -0.01400
C2394       C  0.98744928  0.62429413  0.92253434     0.03500
C2395       C  0.53250221  0.62020928  0.84790201     0.38200
C2396       C  0.96728162  0.59051246  0.97316334     0.38200
C2397       C  0.97600539  0.64441683  0.93615871     0.36600
C2398       C  0.53014899  0.57091864  0.88904250     0.36600
N2399       N  0.96720597  0.66063466  0.94728979    -0.38200
N2400       N  0.54177472  0.55648969  0.88009659    -0.38200
N2401       N  0.95334129  0.58414039  0.99804767    -0.37700
N2402       N  0.54477475  0.62529784  0.82207970    -0.37700
C2403       C  0.49424186  0.57598150  0.57066846    -0.04300
C2404       C  0.97514367  0.56582358  0.59978940    -0.01500
C2405       C  0.97468341  0.58870579  0.62163189     0.03500
C2406       C  0.49334685  0.62203981  0.61461328    -0.04300
C2407       C  0.51145143  0.63190209  0.58487260    -0.01400
C2408       C  0.51192020  0.60913664  0.56312920     0.03500
C2409       C  0.95670322  0.53197747  0.60788129     0.38200
C2410       C  0.52873052  0.66557141  0.57570941     0.38200
C2411       C  0.52966447  0.62001801  0.53209378     0.36600
C2412       C  0.95551652  0.57787464  0.65163515     0.36600
N2413       N  0.54371701  0.62867816  0.50733034    -0.38200
N2414       N  0.93994346  0.56883715  0.67537540    -0.38200
N2415       N  0.54246719  0.69236722  0.56828863    -0.37700
N2416       N  0.94195513  0.50498055  0.61431859    -0.37700
C2417       C  0.62931720  0.00530837  0.61314291    -0.04300
C2418       C  0.61395112  0.52265346  0.62096924    -0.01500
C2419       C  0.58941696  0.52036125  0.60003124     0.03500
C2420       C  0.58013970  0.00097172  0.57085420    -0.04300
C2421       C  0.59604721  0.98420907  0.56273783    -0.01400
C2422       C  0.62035011  0.98634683  0.58367051     0.03500
C2423       C  0.62250193  0.54215870  0.65097153     0.38200
C2424       C  0.58838555  0.96558702  0.53202539     0.38200
C2425       C  0.63678175  0.96953544  0.57417579     0.36600
C2426       C  0.57287219  0.53708671  0.60919858     0.36600
N2427       N  0.64982483  0.95608112  0.56669811    -0.38200
N2428       N  0.55958212  0.55033572  0.61649869    -0.38200
N2429       N  0.58237113  0.95075850  0.50756137    -0.37700
N2430       N  0.62897713  0.55802099  0.67469181    -0.37700
C2431       C  0.62547610  0.99807675  0.88712380    -0.04300
C2432       C  0.63459347  0.51474475  0.91805648    -0.01500
C2433       C  0.61178480  0.51561504  0.93892768     0.03500
C2434       C  0.57935211  0.49911225  0.92972401    -0.04300
C2435       C  0.57007056  0.98216089  0.89904791    -0.01400
C2436       C  0.59304185  0.98202235  0.87763417     0.03500
C2437       C  0.66720132  0.52955206  0.92960253     0.38200
C2438       C  0.53693375  0.96533824  0.88917140     0.38200
C2439       C  0.58319979  0.96597309  0.84544231     0.36600
C2440       C  0.62171477  0.53237902  0.97079982     0.36600
N2441       N  0.57527627  0.95316939  0.81976581    -0.38200
N2442       N  0.62969154  0.54578640  0.99615747    -0.38200
N2443       N  0.51047826  0.95181068  0.88139491    -0.37700
N2444       N  0.69315682  0.54125554  0.93889761    -0.37700
C2445       C  0.92186182  0.91855813  0.92409390    -0.04300
C2446       C  0.89989315  0.88655217  0.93298281    -0.01500
C2447       C  0.87620310  0.86610590  0.91010899     0.03500
C2448       C  0.87581794  0.87649042  0.87715366    -0.04300
C2449       C  0.89899499  0.90786398  0.86756816    -0.01400
C2450       C  0.92149903  0.92907834  0.89119744     0.03500
C2451       C  0.90129691  0.87462614  0.96588517     0.38200
C2452       C  0.90039396  0.91802419  0.83320431     0.38200
C2453       C  0.94498788  0.96141328  0.88141264     0.36600
C2454       C  0.85107309  0.83494423  0.92116548     0.36600
N2455       N  0.96384331  0.98719631  0.87368028    -0.38200
N2456       N  0.83079742  0.81025426  0.93003484    -0.38200
N2457       N  0.90205547  0.92628244  0.80573892    -0.37700
N2458       N  0.90259597  0.86484248  0.49191279    -0.37700
C2459       C  0.91837451  0.91491876  0.57004124    -0.04300
C2460       C  0.92900631  0.90838297  0.60039086    -0.01500
C2461       C  0.90706899  0.88569922  0.62326742     0.03500
C2462       C  0.87416298  0.86927788  0.61620604    -0.04300
C2463       C  0.86354647  0.87563287  0.58579595    -0.01400
C2464       C  0.88540789  0.89830576  0.56294861     0.03500
C2465       C  0.96252127  0.92581409  0.60875228     0.38200
C2466       C  0.83007809  0.85775704  0.57722548     0.38200
C2467       C  0.87380159  0.90346284  0.53145525     0.36600
C2468       C  0.91855581  0.88008436  0.65453583     0.36600
N2469       N  0.86443134  0.90740293  0.00633300    -0.38200
N2470       N  0.92824534  0.87595440  0.67931796    -0.38200
N2471       N  0.80339942  0.84338859  0.57041778    -0.37700
N2472       N  0.98924208  0.93974066  0.61543343    -0.37700
C2473       C  0.65845401  0.88380002  0.70109741    -0.04300
C2474       C  0.67883920  0.89952796  0.67343127    -0.01500
C2475       C  0.68190207  0.92823642  0.66057025     0.03500
C2476       C  0.66449440  0.94120906  0.67459522    -0.04300
C2477       C  0.64090955  0.92338801  0.69828711    -0.01400
C2478       C  0.63682721  0.89411607  0.71032691     0.03500
C2479       C  0.69730211  0.88725502  0.65801388     0.38200
C2480       C  0.62203800  0.93623367  0.71186896     0.38200
C2481       C  0.61096635  0.87600581  0.73330483     0.36600
C2482       C  0.70329220  0.94481043  0.63304242     0.36600
N2483       N  0.59025699  0.86363554  0.75208337    -0.38200
N2484       N  0.72015305  0.95801325  0.61095070    -0.38200
N2485       N  0.60724193  0.94663428  0.72288557    -0.37700
N2486       N  0.71173245  0.87774090  0.64430056    -0.37700
C2487       C  0.66418828  0.88867491  0.77856916    -0.04300
C2488       C  0.64374020  0.88270518  0.80640749    -0.01500
C2489       C  0.64351651  0.90847794  0.82349959     0.03500
C2490       C  0.66224514  0.94029960  0.81184666    -0.04300
C2491       C  0.68018080  0.94549942  0.78245271    -0.01400
C2492       C  0.68411853  0.92102457  0.76887535     0.03500
C2493       C  0.62204449  0.85021911  0.81722640     0.38200
C2494       C  0.69383083  0.97595207  0.76474885     0.38200
C2495       C  0.70907363  0.93056668  0.74463233     0.36600
C2496       C  0.62349962  0.90197756  0.85255864     0.36600
N2497       N  0.72917289  0.94129384  0.72512842    -0.38200
N2498       N  0.60730303  0.89670782  0.87559623    -0.38200
N2499       N  0.70477767  0.00016308  0.75074963    -0.37700
N2500       N  0.60453713  0.82459056  0.82660861    -0.37700
C2501       C  0.72490409  0.84448770  0.78478694    -0.04300
C2502       C  0.75611860  0.87022251  0.78049344    -0.01500
C2503       C  0.78218146  0.86789584  0.79219191     0.03500
C2504       C  0.77697442  0.84189723  0.81254716    -0.04300
C2505       C  0.74589391  0.82085875  0.82394821    -0.01400
C2506       C  0.72041126  0.82421039  0.81231317     0.02600
C2507       C  0.76096751  0.90181228  0.77465151     0.38200
C2508       C  0.74027096  0.79685380  0.84899826     0.38200
C2509       C  0.69392512  0.81459824  0.83466791     0.36600
C2510       C  0.81404459  0.89225656  0.78308442     0.36600
N2511       N  0.67365586  0.80757460  0.85372101    -0.38200
N2512       N  0.83934213  0.91182605  0.77543115    -0.38200
N2513       N  0.73580594  0.77763250  0.86887319    -0.37700
N2514       N  0.76620811  0.92787307  0.77222507    -0.37700
C2515       C  0.72500422  0.83709509  0.70679119    -0.04300
C2516       C  0.71952985  0.80813889  0.69194425    -0.01500
C2517       C  0.74517853  0.80406488  0.68256869     0.03500
C2518       C  0.77657634  0.83024691  0.68363073    -0.04300
C2519       C  0.78148531  0.86059206  0.69289945    -0.01400
C2520       C  0.75567258  0.86417216  0.70266183     0.03500
C2521       C  0.68868292  0.78580929  0.67837719     0.38200
C2522       C  0.81321522  0.88849949  0.69245494     0.38200
C2523       C  0.76028791  0.89600146  0.70105357     0.36600
C2524       C  0.73877088  0.77319521  0.66994236     0.36600
N2525       N  0.76678221  0.92230228  0.69715410    -0.38200
N2526       N  0.73331306  0.74840210  0.66007903    -0.38200
N2527       N  0.83846143  0.91076933  0.69201106    -0.37700
N2528       N  0.66556050  0.76857122  0.66417377    -0.37700
C2529       C  0.61197645  0.77613353  0.77807643    -0.04300
C2530       C  0.61617143  0.75598814  0.80077731    -0.01500
C2531       C  0.59042396  0.73297221  0.82027640     0.03500
C2532       C  0.55897090  0.72525033  0.81274965    -0.04300
C2533       C  0.55461521  0.74119045  0.78523134    -0.01400
C2534       C  0.58051240  0.76861698  0.77127566     0.03500
C2535       C  0.64535174  0.75523772  0.80110925     0.38200
C2536       C  0.52405531  0.72782736  0.76849170     0.38200
C2537       C  0.57373196  0.78781565  0.74874964     0.36600
C2538       C  0.59675934  0.71701701  0.84733661     0.36600
N2539       N  0.56619698  0.80124943  0.73041349    -0.38200
N2540       N  0.60212759  0.70455381  0.86898362    -0.38200
N2541       N  0.50000934  0.71709515  0.75457117    -0.37700
N2542       N  0.66767313  0.75271804  0.80134610    -0.37700
C2543       C  0.61566869  0.77454324  0.70266125    -0.04300
C2544       C  0.59736480  0.77971541  0.67842210    -0.01500
C2545       C  0.56826386  0.75377883  0.66673711     0.03500
C2546       C  0.55788773  0.72236382  0.67773096    -0.04300
C2547       C  0.57800437  0.71658226  0.69805456    -0.01400
C2548       C  0.60714858  0.74236026  0.70948892     0.03500
C2549       C  0.60736462  0.81131999  0.66544033     0.38200
C2550       C  0.56825929  0.68405904  0.70810559     0.38200
C2551       C  0.62976602  0.73526744  0.72470369     0.36600
C2552       C  0.54872079  0.75942527  0.64351425     0.36600
N2553       N  0.64784196  0.72846425  0.73459284    -0.38200
N2554       N  0.53317013  0.76395132  0.62499376    -0.38200
N2555       N  0.56036596  0.65810955  0.71617728    -0.37700
N2556       N  0.61401747  0.83560188  0.65324602    -0.37700
C2557       C  0.89203164  0.67389341  0.80051285    -0.04300
C2558       C  0.88835154  0.65290159  0.82720744    -0.01500
C2559       C  0.91535600  0.65562710  0.84387437     0.03500
C2560       C  0.94608973  0.68165161  0.83678463    -0.04300
C2561       C  0.94802395  0.70664523  0.81655626    -0.01400
C2562       C  0.92239146  0.70129284  0.79589879     0.03500
C2563       C  0.85719920  0.62717694  0.83658371     0.38200
C2564       C  0.97581363  0.73860563  0.81789341     0.38200
C2565       C  0.92856272  0.72388297  0.76919873     0.36600
C2566       C  0.91100647  0.63161479  0.86833881     0.36600
N2567       N  0.93560796  0.74212776  0.74759112    -0.38200
N2568       N  0.90725959  0.61235497  0.88787719    -0.38200
N2569       N  0.99774536  0.76418357  0.81910469    -0.37700
N2570       N  0.83289271  0.60644686  0.84532243    -0.37700
C2571       C  0.89056495  0.66462559  0.72324049    -0.04300
C2572       C  0.90471299  0.68497545  0.69503994    -0.01500
C2573       C  0.92975723  0.68487204  0.67738220     0.03500
C2574       C  0.94189899  0.66547676  0.68806511    -0.04300
C2575       C  0.92791320  0.64495003  0.71550198    -0.01400
C2576       C  0.90164862  0.64342555  0.73201745     0.03500
C2577       C  0.89525281  0.70754799  0.68445357     0.38200
C2578       C  0.94151435  0.62622078  0.72770564     0.38200
C2579       C  0.88584296  0.61884267  0.75709579     0.36600
C2580       C  0.94331881  0.70500187  0.64810322     0.36600
N2581       N  0.87458985  0.59866566  0.77684133    -0.38200
N2582       N  0.95393347  0.72088481  0.62463317    -0.38200
N2583       N  0.95264282  0.61166441  0.73773614    -0.37700
N2584       N  0.88914114  0.72627078  0.67460288    -0.37700
C2585       C  0.83591419  0.77288220  0.68700734    -0.04300
C2586       C  0.81740521  0.74134306  0.67480667    -0.01500
C2587       C  0.81851641  0.71574891  0.69061646     0.03500
C2588       C  0.83844654  0.72165857  0.71890751    -0.04300
C2589       C  0.85961977  0.75412620  0.72831158    -0.01400
C2590       C  0.85727698  0.77925133  0.71344240     0.03500
C2591       C  0.79656604  0.73517606  0.64636068     0.38200
C2592       C  0.88369482  0.76250439  0.75379871     0.38200
C2593       C  0.87548316  0.81152488  0.72696405     0.36600
C2594       C  0.79748391  0.68343625  0.67864746     0.36600
N2595       N  0.88969557  0.83699700  0.73836220    -0.38200
N2596       N  0.78034087  0.65802118  0.66831541    -0.38200
N2597       N  0.90300578  0.77110702  0.77437341    -0.37700
N2598       N  0.78003780  0.73027050  0.62358616    -0.37700
C2599       C  0.82579663  0.71739550  0.79374063    -0.04300
C2600       C  0.84426322  0.73503666  0.82165807    -0.01500
C2601       C  0.84206758  0.76121606  0.83443665     0.03500
C2602       C  0.82268770  0.77145793  0.81830685    -0.04300
C2603       C  0.80176836  0.75144234  0.79261229    -0.01400
C2604       C  0.80231384  0.72394388  0.78185799     0.03500
C2605       C  0.86702571  0.72777547  0.83644123     0.38200
C2606       C  0.77993470  0.75897522  0.77572295     0.38200
C2607       C  0.77863963  0.70301951  0.75769611     0.36600
C2608       C  0.85974693  0.77698952  0.86457374     0.36600
N2609       N  0.75943673  0.68804881  0.73791577    -0.38200
N2610       N  0.87394177  0.78901583  0.88874258    -0.38200
N2611       N  0.76243166  0.76458558  0.76196350    -0.37700
N2612       N  0.88538176  0.72259669  0.84883814    -0.37700
C2613       C  0.73251392  0.55449654  0.83238116    -0.04300
C2614       C  0.75558690  0.55154210  0.81351106    -0.01500
C2615       C  0.77827500  0.57741074  0.79436075     0.03500
C2616       C  0.78249393  0.60834509  0.79835784    -0.04300
C2617       C  0.76442074  0.61279638  0.82328625    -0.01400
C2618       C  0.73835433  0.58593434  0.83860381     0.03500
C2619       C  0.75730173  0.52240039  0.81447642     0.38200
C2620       C  0.77083700  0.64464552  0.83195201     0.38200
C2621       C  0.71767307  0.59120173  0.86028692     0.36600
C2622       C  0.79725061  0.57161233  0.77068418     0.36600
N2623       N  0.70133089  0.59580591  0.87742860    -0.38200
N2624       N  0.81115303  0.56562721  0.75145590    -0.38200
N2625       N  0.77498843  0.66948049  0.83995277    -0.37700
N2626       N  0.75900537  0.49938635  0.81523000    -0.37700
C2627       C  0.77851106  0.60968689  0.72093013    -0.04300
C2628       C  0.78431788  0.59446377  0.69359350    -0.01500
C2629       C  0.75877318  0.56942804  0.67538757     0.03500
C2630       C  0.72709373  0.55856155  0.68452381    -0.04300
C2631       C  0.72110234  0.57369928  0.71119621    -0.01400
C2632       C  0.74632588  0.59991769  0.72813126     0.03500
C2633       C  0.81638786  0.60342490  0.68438898     0.38200
C2634       C  0.68880598  0.56093811  0.72282171     0.38200
C2635       C  0.73800985  0.61683387  0.75212825     0.36600
C2636       C  0.76504128  0.55452033  0.64721753     0.36600
N2637       N  0.72900884  0.62864944  0.77090284    -0.38200
N2638       N  0.76998960  0.04262742  0.62465070    -0.38200
N2639       N  0.66328277  0.55057773  0.73281250    -0.37700
N2640       N  0.84166410  0.61000807  0.67626545    -0.37700
loop_ 
_geom_bond_atom_site_label_1 
_geom_bond_atom_site_label_2 
_geom_bond_distance 
_geom_bond_site_symmetry_2 
_ccdc_geom_bond_type 
C1            H2   1.107       .  S
C1            C7   1.542       .  S
C1            C6   1.553       .  S
C1            C5   1.547       .  S
C3            H4   1.105       .  S
C3            C9   1.552       .  S
C3            C8   1.549       .  S
C3           C10   1.558       .  S
C5            C8   1.381       .  D
C5          C289   1.516       .  S
C6            C9   1.386       .  D
C6          C247   1.517       .  S
C7           C10   1.385       .  D
C7          C306   1.511       .  S
C8          C278   1.517       .  S
C9          C261   1.524       .  S
C10         C317   1.527       .  S
C11          H12   1.104       .  S
C11          C17   1.562       .  S
C11          C16   1.561       .  S
C11          C15   1.542       .  S
C13          H14   1.099       .  S
C13          C19   1.548       .  S
C13          C18   1.562       .  S
C13          C20   1.544       .  S
C15          C18   1.379       .  D
C15         C233   1.523       .  S
C16          C19   1.397       .  D
C16         C205   1.524       .  S
C17          C20   1.391       .  D
C17         C163   1.527       .  S
C18         C219   1.519       .  S
C19         C191   1.529       .  S
C20         C177   1.525       .  S
C21          N22   1.360       .  A
C21          N26   1.361       .  A
C21         C152   1.496       .  S
N22          C23   1.360       .  A
C23          N24   1.358       .  A
C23         C275   1.480       .  S
N24          C25   1.358       .  A
C25          N26   1.362       .  A
C25         C208   1.496       .  S
C27          N28   1.363       .  A
C27          N32   1.362       .  A
C27         C138   1.488       .  S
N28          C29   1.361       .  A
C29          N30   1.354       .  A
C29         C194   1.488       .  S
N30          C31   1.357       .  A
C31          N32   1.360       .  A
C31         C292   1.516       .  S
C33          N38   1.368       .  A
C33         N694   1.370       .  A
C33         C121   1.499       .  S
N34          C35   1.361       .  A
N34         C693   1.370   1_545  A
C35          N36   1.347   1_545  A
C35         C303   1.516       .  S
N36         C697   1.350       .  A
C37          N38   1.360       .  A
C37         N696   1.350       .  A
C37         C180   1.503       .  S
C39          N44   1.357       .  A
C39         N700   1.367       .  A
C39         C107   1.497       .  S
N40          C41   1.368       .  A
N40         C699   1.367       .  A
C41         N702   1.359       .  A
C41         C320   1.494       .  S
N42          C43   1.357       .  A
N42         C701   1.359       .  A
C43          N44   1.352       .  A
C43         C166   1.480       .  S
C45          N46   1.361   1_655  A
C45        N1370   1.364       .  A
C45          C96   1.497       .  S
N46          C47   1.357       .  A
C47          N48   1.357   1_455  A
C47         C236   1.485       .  S
N48        C1369   1.358       .  A
C49          N50   1.363       .  A
C49        N1368   1.358       .  A
C49         C264   1.487       .  S
N50        C1365   1.364       .  A
C51          N56   1.367       .  A
C51        N1372   1.368       .  A
C51          C79   1.502       .  S
N52          C53   1.363       .  A
N52        C1371   1.368       .  A
C53        N1374   1.354       .  A
C53         C222   1.513       .  S
N54          C55   1.353       .  A
N54        C1373   1.354       .  A
C55          N56   1.361       .  A
C55         C250   1.516       .  S
Fe57         O68   1.981       .  S
Fe57         O70   2.073   1_556  S
Fe57        O403   2.076       .  S
Fe57       O1713   2.072       .  S
Fe57       O1382   2.077   1_556  S
Fe58         O68   1.980       .  S
Fe58         O69   2.078   1_556  S
Fe58       O1051   2.076       .  S
Fe58        O395   2.071       .  S
Fe58        O734   2.073   1_556  S
Fe59       O2048   1.976   1_444  S
Fe59         O64   2.072       .  S
Fe59         O60   2.068       .  S
Fe59        O407   2.070   1_554  S
Fe59        O401   2.072   1_554  S
O60         C727   1.269   1_545  A
O61       Fe1048   2.076   1_545  S
O61          C75   1.270       .  A
O62       Fe1377   2.076   1_454  S
O62          C67   1.272       .  A
O63       Fe1707   2.072   1_455  S
O63         C726   1.271       .  A
O64          C76   1.272   1_455  A
O65        Fe388   2.071       .  S
O65          C78   1.271       .  A
C66         C124   1.493       .  S
C66          O71   1.271   1_565  A
C66         O723   1.271       .  A
C67         C110   1.497       .  S
C67         O720   1.269       .  A
O68       Fe2039   1.976   1_556  S
O69          C72   1.271       .  A
O70          C72   1.271       .  A
O71        Fe389   2.072       .  S
C72         C149   1.499       .  S
O73        Fe387   2.076       .  S
O73          C78   1.271       .  A
O74        Fe718   2.073   1_544  S
O74        C1396   1.272       .  A
C75          C82   1.496       .  S
C75        O1397   1.269       .  A
C76          C93   1.496       .  S
C76        O1394   1.272       .  A
O77        Fe389   2.070       .  S
O77        C1395   1.269   1_455  A
C78         C135   1.488       .  S
C79          C84   1.417       .  A
C79        C1400   1.419       .  A
C80          C81   1.418       .  A
C80        C1399   1.419       .  A
C80          C85   1.450       .  S
C81        C1402   1.413   1_455  A
C81          C88   1.451       .  S
C82          C83   1.416       .  A
C82        C1401   1.413       .  A
C83          C84   1.414       .  A
C83          C86   1.453       .  S
C84          C87   1.452       .  S
C85          N92   1.157       .  T
C86          N91   1.158       .  T
C87          N89   1.157       .  T
C88          N90   1.157       .  T
C93          C98   1.417   1_655  A
C93        C1414   1.415       .  A
C94          C95   1.418       .  A
C94        C1413   1.415       .  A
C94          C99   1.451       .  S
C95        C1416   1.417       .  A
C95         C102   1.449       .  S
C96          C97   1.415   1_655  A
C96        C1415   1.417       .  A
C97          C98   1.411       .  A
C97         C100   1.453       .  S
C98         C101   1.453       .  S
C99         N106   1.158       .  T
C100        N105   1.157       .  T
C101        N103   1.158       .  T
C102        N104   1.157       .  T
C107        C112   1.417       .  A
C107        C768   1.415       .  A
C108        C109   1.418       .  A
C108        C767   1.415       .  A
C108        C113   1.448       .  S
C109        C770   1.416       .  A
C109        C116   1.451       .  S
C110        C111   1.416       .  A
C110        C769   1.416       .  A
C111        C112   1.412       .  A
C111        C114   1.453       .  S
C112        C115   1.453       .  S
C113        N120   1.157       .  T
C114        N119   1.157       .  T
C115        N117   1.157       .  T
C116        N118   1.157       .  T
C121        C126   1.419       .  A
C121        C782   1.416       .  A
C122        C123   1.412       .  A
C122        C781   1.417   1_545  A
C122        C127   1.452       .  S
C123        C124   1.415   1_545  A
C123        C130   1.453       .  S
C124        C785   1.413       .  A
C125        C126   1.417       .  A
C125        C784   1.413       .  A
C125        C128   1.451       .  S
C126        C129   1.451       .  S
C127        N134   1.157       .  T
C128        N133   1.157       .  T
C129        N131   1.157       .  T
C130        N132   1.157       .  T
C135        C136   1.413       .  A
C135        C140   1.413       .  A
C136        C137   1.410       .  A
C136        C141   1.451       .  S
C137        C138   1.413       .  A
C137        C144   1.452       .  S
C138        C139   1.413       .  A
C139        C140   1.416       .  A
C139        C142   1.449       .  S
C140        C143   1.451       .  S
C141        N478   1.157       .  T
C142        N147   1.157       .  T
C143        N145   1.157       .  T
C144        N146   1.157       .  T
N148        C471   1.157       .  T
C149        C150   1.416       .  A
C149        C154   1.418       .  A
C150        C151   1.416       .  A
C150        C155   1.452       .  S
C151        C152   1.416       .  A
C151        C158   1.449       .  S
C152        C153   1.414       .  A
C153        C154   1.414       .  A
C153        C156   1.452       .  S
C154        C157   1.452       .  S
C155        N162   1.158       .  T
C156        N161   1.157       .  T
C157        N489   1.157       .  T
C158        N160   1.157       .  T
N159        C487   1.157       .  T
C163        C164   1.426       .  A
C163        C168   1.428       .  A
C164        C165   1.416       .  A
C164        C169   1.446       .  S
C165        C166   1.405       .  A
C165        C172   1.451       .  S
C166        C167   1.404       .  A
C167        C168   1.411       .  A
C167        C170   1.454       .  S
C168        C171   1.448       .  S
C169        N176   1.158       .  T
C170        N175   1.157       .  T
C171        N173   1.157       .  T
C172        N174   1.157       .  T
C177        C178   1.426       .  A
C177        C182   1.417       .  A
C178        C179   1.425       .  A
C178        C183   1.449       .  S
C179        C180   1.415       .  A
C179        C186   1.449       .  S
C180        C181   1.412       .  A
C181        C182   1.401       .  A
C181        C184   1.458       .  S
C182        C185   1.441       .  S
C183        N190   1.157       .  T
C184        N189   1.157       .  T
C185        N187   1.154       .  T
C186        N188   1.157       .  T
C191        C192   1.410       .  A
C191        C196   1.416       .  A
C192        C193   1.413       .  A
C192        C197   1.442       .  S
C193        C194   1.409       .  A
C193        C200   1.448       .  S
C194        C195   1.412       .  A
C195        C196   1.413       .  A
C195        C198   1.451       .  S
C196        C199   1.445       .  S
C197        N204   1.156       .  T
C198        N203   1.157       .  T
C199        N201   1.158       .  T
C200        N202   1.157       .  T
C205        C206   1.415       .  A
C205        C210   1.416       .  A
C206        C207   1.416       .  A
C206        C211   1.443       .  S
C207        C208   1.413       .  A
C207        C214   1.451       .  S
C208        C209   1.411       .  A
C209        C210   1.414       .  A
C209        C212   1.453       .  S
C210        C213   1.440       .  S
C211        N218   1.157       .  T
C212        N217   1.157       .  T
C213        N215   1.155       .  T
C214        N216   1.157       .  T
C219        C220   1.420       .  A
C219        C224   1.416       .  A
C220        C221   1.421       .  A
C220        C225   1.446       .  S
C221        C222   1.418       .  A
C221        C228   1.450       .  S
C222        C223   1.419       .  A
C223        C224   1.407       .  A
C223        C226   1.454       .  S
C224        C227   1.447       .  S
C225        N232   1.158       .  T
C226        N231   1.158       .  T
C227        N229   1.156       .  T
C228        N230   1.158       .  T
C233        C234   1.423       .  A
C233        C238   1.420       .  A
C234        C235   1.416       .  A
C234        C239   1.446       .  S
C235        C236   1.407       .  A
C235        C242   1.452       .  S
C236        C237   1.407       .  A
C237        C238   1.411       .  A
C237        C240   1.451       .  S
C238        C241   1.446       .  S
C239        N246   1.157       .  T
C240        N245   1.157       .  T
C241        N243   1.157       .  T
C242        N244   1.157       .  T
C247        C248   1.421       .  A
C247        C252   1.416       .  A
C248        C249   1.422       .  A
C248        C253   1.448       .  S
C249        C250   1.419       .  A
C249        C256   1.450       .  S
C250        C251   1.418       .  A
C251        C252   1.409       .  A
C251        C254   1.454       .  S
C252        C255   1.447       .  S
C253        N260   1.156       .  T
C254        N259   1.158       .  T
C255        N257   1.157       .  T
C256        N258   1.158       .  T
C261        C262   1.426       .  A
C261        C266   1.425       .  A
C262        C263   1.417       .  A
C262        C267   1.447       .  S
C263        C264   1.406       .  A
C263        C270   1.452       .  S
C264        C265   1.405       .  A
C265        C266   1.414       .  A
C265        C268   1.452       .  S
C266        C269   1.446       .  S
C267        N274   1.157       .  T
C268        N273   1.157       .  T
C269        N271   1.157       .  T
C270        N272   1.157       .  T
C275        C276   1.408       .  A
C275        C280   1.403       .  A
C276        C277   1.415       .  A
C276        C281   1.451       .  S
C277        C278   1.421       .  A
C277        C284   1.449       .  S
C278        C279   1.425       .  A
C279        C280   1.409       .  A
C279        C282   1.448       .  S
C280        C283   1.453       .  S
C281        N288   1.157       .  T
C282        N287   1.157       .  T
C283        N285   1.157       .  T
C284        N286   1.157       .  T
C289        C290   1.414       .  A
C289        C294   1.418       .  A
C290        C291   1.418       .  A
C290        C295   1.450       .  S
C291        C292   1.425       .  A
C291        C298   1.451       .  S
C292        C293   1.424       .  A
C293        C294   1.410       .  A
C293        C296   1.455       .  S
C294        C297   1.450       .  S
C295        N302   1.157       .  T
C296        N301   1.158       .  T
C297        N299   1.157       .  T
C298        N300   1.157       .  T
C303        C304   1.424       .  A
C303        C308   1.419       .  A
C304        C305   1.408       .  A
C304        C309   1.454       .  S
C305        C306   1.412       .  A
C305        C312   1.450       .  S
C306        C307   1.420       .  A
C307        C308   1.420       .  A
C307        C310   1.449       .  S
C308        C311   1.450       .  S
C309        N316   1.158   1_545  T
C310        N315   1.157       .  T
C311        N313   1.158       .  T
C312        N314   1.157       .  T
C317        C318   1.424       .  A
C317        C322   1.426       .  A
C318        C319   1.421       .  A
C318        C323   1.449       .  S
C319        C320   1.410       .  A
C319        C326   1.451       .  S
C320        C321   1.405       .  A
C321        C322   1.414       .  A
C321        C324   1.452       .  S
C322        C325   1.446       .  S
C323        N330   1.157       .  T
C324        N329   1.157       .  T
C325        N327   1.157       .  T
C326        N988   1.157       .  T
N328        C986   1.157       .  T
C331        H332   1.107       .  S
C331        C337   1.542       .  S
C331        C336   1.553       .  S
C331        C335   1.547       .  S
C333        H334   1.105       .  S
C333        C339   1.552       .  S
C333        C338   1.549       .  S
C333        C340   1.558       .  S
C335        C338   1.381       .  D
C335        C619   1.516       .  S
C336        C339   1.386       .  D
C336        C577   1.517       .  S
C337        C340   1.385       .  D
C337        C636   1.511       .  S
C338        C608   1.517       .  S
C339        C591   1.524       .  S
C340        C647   1.527       .  S
C341        H342   1.104       .  S
C341        C347   1.562       .  S
C341        C346   1.561       .  S
C341        C345   1.542       .  S
C343        H344   1.099       .  S
C343        C349   1.548       .  S
C343        C348   1.562       .  S
C343        C350   1.544       .  S
C345        C348   1.379       .  D
C345        C563   1.523       .  S
C346        C349   1.397       .  D
C346        C535   1.524       .  S
C347        C350   1.391       .  D
C347        C493   1.527       .  S
C348        C549   1.519       .  S
C349        C521   1.529       .  S
C350        C507   1.525       .  S
C351        N352   1.360       .  A
C351        N356   1.361       .  A
C351        C482   1.496       .  S
N352        C353   1.360       .  A
C353        N354   1.358       .  A
C353        C605   1.480       .  S
N354        C355   1.358       .  A
C355        N356   1.362       .  A
C355        C538   1.496       .  S
C357        N358   1.363       .  A
C357        N362   1.362       .  A
C357        C468   1.488       .  S
N358        C359   1.361       .  A
C359        N360   1.354       .  A
C359        C524   1.488       .  S
N360        C361   1.357       .  A
C361        N362   1.360       .  A
C361        C622   1.516       .  S
C363       N1024   1.370       .  A
C363        N368   1.368       .  A
C363        C451   1.499       .  S
N364       C1023   1.370   1_545  A
N364        C365   1.361       .  A
C365        N366   1.347   1_545  A
C365        C633   1.516       .  S
N366       C1027   1.350       .  A
C367       N1026   1.350       .  A
C367        N368   1.360       .  A
C367        C510   1.503       .  S
C369       N1030   1.367       .  A
C369        N374   1.357       .  A
C369        C437   1.497       .  S
N370       C1029   1.367       .  A
N370        C371   1.368       .  A
C371       N1032   1.359       .  A
C371        C650   1.494       .  S
N372       C1031   1.359       .  A
N372        C373   1.357       .  A
C373        N374   1.352       .  A
C373        C496   1.480       .  S
C375        N376   1.361   1_655  A
C375       N1700   1.364       .  A
C375        C426   1.497       .  S
N376        C377   1.357       .  A
C377        N378   1.357   1_455  A
C377        C566   1.485       .  S
N378       C1699   1.358       .  A
C379       N1698   1.358       .  A
C379        N380   1.363       .  A
C379        C594   1.487       .  S
N380       C1695   1.364       .  A
C381       N1702   1.368       .  A
C381        N386   1.367       .  A
C381        C409   1.502       .  S
N382       C1701   1.368       .  A
N382        C383   1.363       .  A
C383       N1704   1.354       .  A
C383        C552   1.513       .  S
N384       C1703   1.354       .  A
N384        C385   1.353       .  A
C385        N386   1.361       .  A
C385        C580   1.516       .  S
Fe387       O398   1.981       .  S
Fe387      O1383   2.072       .  S
Fe387       O400   2.073       .  S
Fe387      O1712   2.077       .  S
Fe388       O398   1.980       .  S
Fe388       O721   2.076       .  S
Fe388       O399   2.078       .  S
Fe388      O1064   2.073       .  S
Fe389      O2378   1.976   1_445  S
Fe389       O394   2.071       .  S
Fe389       O390   2.068       .  S
O390       C1057   1.269   1_545  A
O391       Fe718   2.076   1_545  S
O391        C405   1.270       .  A
O392      Fe1707   2.076   1_455  S
O392        C397   1.272       .  A
O393      Fe1377   2.072   1_455  S
O393       C1056   1.271       .  A
O394        C406   1.272   1_455  A
O395        C408   1.271       .  A
C396        C454   1.493       .  S
C396       O1053   1.271       .  A
C396        O401   1.271   1_565  A
C397        C440   1.497       .  S
C397       O1050   1.269       .  A
O398      Fe2369   1.976       .  S
O399        C402   1.271       .  A
O400        C402   1.271       .  A
C402        C479   1.499       .  S
O403        C408   1.271       .  A
O404      Fe1048   2.073   1_545  S
O404       C1726   1.272       .  A
C405        C412   1.496       .  S
C405       O1727   1.269       .  A
C406        C423   1.496       .  S
C406       O1724   1.272       .  A
O407       C1725   1.269   1_455  A
C408        C465   1.488       .  S
C409       C1730   1.419       .  A
C409        C414   1.417       .  A
C410       C1729   1.419       .  A
C410        C411   1.418       .  A
C410        C415   1.450       .  S
C411       C1732   1.413   1_455  A
C411        C418   1.451       .  S
C412       C1731   1.413       .  A
C412        C413   1.416       .  A
C413        C414   1.414       .  A
C413        C416   1.453       .  S
C414        C417   1.452       .  S
C415        N422   1.157       .  T
C416        N421   1.158       .  T
C417        N419   1.157       .  T
C418        N420   1.157       .  T
C423       C1744   1.415       .  A
C423        C428   1.417   1_655  A
C424       C1743   1.415       .  A
C424        C425   1.418       .  A
C424        C429   1.451       .  S
C425       C1746   1.417       .  A
C425        C432   1.449       .  S
C426       C1745   1.417       .  A
C426        C427   1.415   1_655  A
C427        C428   1.411       .  A
C427        C430   1.453       .  S
C428        C431   1.453       .  S
C429        N436   1.158       .  T
C430        N435   1.157       .  T
C431        N433   1.158       .  T
C432        N434   1.157       .  T
C437       C1098   1.415       .  A
C437        C442   1.417       .  A
C438       C1097   1.415       .  A
C438        C439   1.418       .  A
C438        C443   1.448       .  S
C439       C1100   1.416       .  A
C439        C446   1.451       .  S
C440       C1099   1.416       .  A
C440        C441   1.416       .  A
C441        C442   1.412       .  A
C441        C444   1.453       .  S
C442        C445   1.453       .  S
C443        N450   1.157       .  T
C444        N449   1.157       .  T
C445        N447   1.157       .  T
C446        N448   1.157       .  T
C451       C1112   1.416       .  A
C451        C456   1.419       .  A
C452       C1111   1.417   1_545  A
C452        C453   1.412       .  A
C452        C457   1.452       .  S
C453        C454   1.415   1_545  A
C453        C460   1.453       .  S
C454       C1115   1.413       .  A
C455       C1114   1.413       .  A
C455        C456   1.417       .  A
C455        C458   1.451       .  S
C456        C459   1.451       .  S
C457        N464   1.157       .  T
C458        N463   1.157       .  T
C459        N461   1.157       .  T
C460        N462   1.157       .  T
C465        C466   1.413       .  A
C465        C470   1.413       .  A
C466        C467   1.410       .  A
C466        C471   1.451       .  S
C467        C468   1.413       .  A
C467        C474   1.452       .  S
C468        C469   1.413       .  A
C469        C470   1.416       .  A
C469        C472   1.449       .  S
C470        C473   1.451       .  S
C472        N477   1.157       .  T
C473        N475   1.157       .  T
C474        N476   1.157       .  T
C479        C480   1.416       .  A
C479        C484   1.418       .  A
C480        C481   1.416       .  A
C480        C485   1.452       .  S
C481        C482   1.416       .  A
C481        C488   1.449       .  S
C482        C483   1.414       .  A
C483        C484   1.414       .  A
C483        C486   1.452       .  S
C484        C487   1.452       .  S
C485        N492   1.158       .  T
C486        N491   1.157       .  T
C488        N490   1.157       .  T
C493        C494   1.426       .  A
C493        C498   1.428       .  A
C494        C495   1.416       .  A
C494        C499   1.446       .  S
C495        C496   1.405       .  A
C495        C502   1.451       .  S
C496        C497   1.404       .  A
C497        C498   1.411       .  A
C497        C500   1.454       .  S
C498        C501   1.448       .  S
C499        N506   1.158       .  T
C500        N505   1.157       .  T
C501        N503   1.157       .  T
C502        N504   1.157       .  T
C507        C508   1.426       .  A
C507        C512   1.417       .  A
C508        C509   1.425       .  A
C508        C513   1.449       .  S
C509        C510   1.415       .  A
C509        C516   1.449       .  S
C510        C511   1.412       .  A
C511        C512   1.401       .  A
C511        C514   1.458       .  S
C512        C515   1.441       .  S
C513        N520   1.157       .  T
C514        N519   1.157       .  T
C515        N517   1.154       .  T
C516        N518   1.157       .  T
C521        C522   1.410       .  A
C521        C526   1.416       .  A
C522        C523   1.413       .  A
C522        C527   1.442       .  S
C523        C524   1.409       .  A
C523        C530   1.448       .  S
C524        C525   1.412       .  A
C525        C526   1.413       .  A
C525        C528   1.451       .  S
C526        C529   1.445       .  S
C527        N534   1.156       .  T
C528        N533   1.157       .  T
C529        N531   1.158       .  T
C530        N532   1.157       .  T
C535        C536   1.415       .  A
C535        C540   1.416       .  A
C536        C537   1.416       .  A
C536        C541   1.443       .  S
C537        C538   1.413       .  A
C537        C544   1.451       .  S
C538        C539   1.411       .  A
C539        C540   1.414       .  A
C539        C542   1.453       .  S
C540        C543   1.440       .  S
C541        N548   1.157       .  T
C542        N547   1.157       .  T
C543        N545   1.155       .  T
C544        N546   1.157       .  T
C549        C550   1.420       .  A
C549        C554   1.416       .  A
C550        C551   1.421       .  A
C550        C555   1.446       .  S
C551        C552   1.418       .  A
C551        C558   1.450       .  S
C552        C553   1.419       .  A
C553        C554   1.407       .  A
C553        C556   1.454       .  S
C554        C557   1.447       .  S
C555        N562   1.158       .  T
C556        N561   1.158       .  T
C557        N559   1.156       .  T
C558        N560   1.158       .  T
C563        C564   1.423       .  A
C563        C568   1.420       .  A
C564        C565   1.416       .  A
C564        C569   1.446       .  S
C565        C566   1.407       .  A
C565        C572   1.452       .  S
C566        C567   1.407       .  A
C567        C568   1.411       .  A
C567        C570   1.451       .  S
C568        C571   1.446       .  S
C569        N576   1.157       .  T
C570        N575   1.157       .  T
C571        N573   1.157       .  T
C572        N574   1.157       .  T
C577        C578   1.421       .  A
C577        C582   1.416       .  A
C578        C579   1.422       .  A
C578        C583   1.448       .  S
C579        C580   1.419       .  A
C579        C586   1.450       .  S
C580        C581   1.418       .  A
C581        C582   1.409       .  A
C581        C584   1.454       .  S
C582        C585   1.447       .  S
C583        N590   1.156       .  T
C584        N589   1.158       .  T
C585        N587   1.157       .  T
C586        N588   1.158       .  T
C591        C592   1.426       .  A
C591        C596   1.425       .  A
C592        C593   1.417       .  A
C592        C597   1.447       .  S
C593        C594   1.406       .  A
C593        C600   1.452       .  S
C594        C595   1.405       .  A
C595        C596   1.414       .  A
C595        C598   1.452       .  S
C596        C599   1.446       .  S
C597        N604   1.157       .  T
C598        N603   1.157       .  T
C599        N601   1.157       .  T
C600        N602   1.157       .  T
C605        C606   1.408       .  A
C605        C610   1.403       .  A
C606        C607   1.415       .  A
C606        C611   1.451       .  S
C607        C608   1.421       .  A
C607        C614   1.449       .  S
C608        C609   1.425       .  A
C609        C610   1.409       .  A
C609        C612   1.448       .  S
C610        C613   1.453       .  S
C611        N618   1.157       .  T
C612        N617   1.157       .  T
C613        N615   1.157       .  T
C614        N616   1.157       .  T
C619        C620   1.414       .  A
C619        C624   1.418       .  A
C620        C621   1.418       .  A
C620        C625   1.450       .  S
C621        C622   1.425       .  A
C621        C628   1.451       .  S
C622        C623   1.424       .  A
C623        C624   1.410       .  A
C623        C626   1.455       .  S
C624        C627   1.450       .  S
C625        N632   1.157       .  T
C626        N631   1.158       .  T
C627        N629   1.157       .  T
C628        N630   1.157       .  T
C633        C634   1.424       .  A
C633        C638   1.419       .  A
C634        C635   1.408       .  A
C634        C639   1.454       .  S
C635        C636   1.412       .  A
C635        C642   1.450       .  S
C636        C637   1.420       .  A
C637        C638   1.420       .  A
C637        C640   1.449       .  S
C638        C641   1.450       .  S
C639        N646   1.158   1_545  T
C640        N645   1.157       .  T
C641        N643   1.158       .  T
C642        N644   1.157       .  T
C647        C648   1.424       .  A
C647        C652   1.426       .  A
C648        C649   1.421       .  A
C648        C653   1.449       .  S
C649        C650   1.410       .  A
C649        C656   1.451       .  S
C650        C651   1.405       .  A
C651        C652   1.414       .  A
C651        C654   1.452       .  S
C652        C655   1.446       .  S
C653        N660   1.157       .  T
C654        N659   1.157       .  T
C655        N657   1.157       .  T
C656       N1318   1.157       .  T
N658       C1316   1.157       .  T
C661        H662   1.107       .  S
C661        C667   1.542       .  S
C661        C666   1.553       .  S
C661        C665   1.547       .  S
C663        H664   1.105       .  S
C663        C669   1.552       .  S
C663        C668   1.549       .  S
C663        C670   1.558       .  S
C665        C668   1.381       .  D
C665        C949   1.516       .  S
C666        C669   1.386       .  D
C666        C907   1.517       .  S
C667        C670   1.385       .  D
C667        C966   1.511       .  S
C668        C938   1.517       .  S
C669        C921   1.525       .  S
C670        C977   1.527       .  S
C671        H672   1.103       .  S
C671        C677   1.562       .  S
C671        C676   1.561       .  S
C671        C675   1.542       .  S
C673        H674   1.099       .  S
C673        C679   1.549       .  S
C673        C678   1.563       .  S
C673        C680   1.544       .  S
C675        C678   1.379       .  D
C675        C893   1.523       .  S
C676        C679   1.397       .  D
C676        C865   1.524       .  S
C677        C680   1.391       .  D
C677        C823   1.528       .  S
C678        C879   1.519       .  S
C679        C851   1.529       .  S
C680        C837   1.526       .  S
C681        N682   1.360       .  A
C681        N686   1.361       .  A
C681        C812   1.496       .  S
N682        C683   1.360       .  A
C683        N684   1.358       .  A
C683        C935   1.480       .  S
N684        C685   1.358       .  A
C685        N686   1.362       .  A
C685        C868   1.497       .  S
C687        N688   1.363       .  A
C687        N692   1.362       .  A
C687        C798   1.488       .  S
N688        C689   1.361       .  A
C689        N690   1.354       .  A
C689        C854   1.488       .  S
N690        C691   1.357       .  A
C691        N692   1.360       .  A
C691        C952   1.516       .  S
C693        N698   1.368       .  A
C693        C781   1.499       .  S
N694        C695   1.361       .  A
C695        N696   1.347       .  A
C695        C963   1.516       .  S
C697        N698   1.360       .  A
C697        C840   1.503       .  S
C699        N704   1.357   1_545  A
C699        C767   1.497       .  S
N700        C701   1.368       .  A
C701        C980   1.494       .  S
N702        C703   1.357   1_545  A
C703        N704   1.352       .  A
C703        C826   1.480       .  S
C705        N706   1.361   1_655  A
C705       N2030   1.364       .  A
C705        C756   1.497       .  S
N706        C707   1.357       .  A
C707        N708   1.357   1_455  A
C707        C896   1.485       .  S
N708       C2029   1.358       .  A
C709       N2028   1.358       .  A
C709        N710   1.363       .  A
C709        C924   1.487       .  S
N710       C2025   1.364       .  A
C711       N2032   1.368       .  A
C711        N716   1.367       .  A
C711        C739   1.502       .  S
N712       C2031   1.368       .  A
N712        C713   1.363       .  A
C713       N2034   1.354       .  A
C713        C882   1.513       .  S
N714       C2033   1.354       .  A
N714        C715   1.353       .  A
C715        N716   1.361       .  A
C715        C910   1.516       .  S
Fe717       O728   1.981       .  S
Fe717      O1063   2.076       .  S
Fe717      O2373   2.072       .  S
Fe717       O730   2.073   1_556  S
Fe717      O2042   2.076   1_556  S
Fe718       O728   1.980       .  S
Fe718      O1055   2.071       .  S
Fe718       O729   2.078   1_556  S
Fe719      O1388   1.976   1_454  S
Fe719      O1067   2.070   1_554  S
Fe719       O724   2.072       .  S
Fe719      O1061   2.072   1_554  S
Fe719       O720   2.068       .  S
O721        C735   1.270       .  A
O722      Fe2037   2.077   1_454  S
O722        C727   1.272       .  A
O723      Fe2367   2.072   1_455  S
O724        C736   1.272   1_455  A
O725      Fe1048   2.071       .  S
O725        C738   1.271       .  A
C726        C784   1.493       .  S
C726        O731   1.271       .  A
C727        C770   1.497   1_565  S
O728      Fe1379   1.976   1_566  S
O729        C732   1.271       .  A
O730        C732   1.271       .  A
O731      Fe1049   2.072       .  S
C732        C809   1.499       .  S
O733      Fe1047   2.076       .  S
O733        C738   1.271       .  A
O734       C2056   1.272       .  A
C735        C742   1.496       .  S
C735       O2057   1.269       .  A
C736        C753   1.496       .  S
C736       O2054   1.272       .  A
O737      Fe1049   2.070       .  S
O737       C2055   1.269   1_455  A
C738        C795   1.488       .  S
C739       C2060   1.419       .  A
C739        C744   1.416       .  A
C740       C2059   1.419       .  A
C740        C741   1.418       .  A
C740        C745   1.450       .  S
C741       C2062   1.413   1_455  A
C741        C748   1.451       .  S
C742       C2061   1.413       .  A
C742        C743   1.416       .  A
C743        C744   1.414       .  A
C743        C746   1.453       .  S
C744        C747   1.452       .  S
C745        N752   1.157       .  T
C746        N751   1.158       .  T
C747        N749   1.157       .  T
C748        N750   1.157       .  T
C753       C2074   1.415       .  A
C753        C758   1.417   1_655  A
C754       C2073   1.415       .  A
C754        C755   1.418       .  A
C754        C759   1.451       .  S
C755       C2076   1.417       .  A
C755        C762   1.449       .  S
C756       C2075   1.417       .  A
C756        C757   1.415   1_655  A
C757        C758   1.411       .  A
C757        C760   1.453       .  S
C758        C761   1.453       .  S
C759        N766   1.158       .  T
C760        N765   1.157       .  T
C761        N763   1.158       .  T
C762        N764   1.157       .  T
C767        C772   1.417   1_545  A
C768        C769   1.418       .  A
C768        C773   1.448       .  S
C769        C776   1.451       .  S
C770        C771   1.416   1_545  A
C771        C772   1.412       .  A
C771        C774   1.453       .  S
C772        C775   1.453       .  S
C773        N780   1.157       .  T
C774        N779   1.157       .  T
C775        N777   1.157       .  T
C776        N778   1.157       .  T
C781        C786   1.419       .  A
C782        C783   1.412       .  A
C782        C787   1.452       .  S
C783        C784   1.415       .  A
C783        C790   1.453       .  S
C785        C786   1.417       .  A
C785        C788   1.451       .  S
C786        C789   1.451       .  S
C787        N794   1.157       .  T
C788        N793   1.157       .  T
C789        N791   1.157       .  T
C790        N792   1.157       .  T
C795        C796   1.413       .  A
C795        C800   1.413       .  A
C796        C797   1.410       .  A
C796        C801   1.451       .  S
C797        C798   1.413       .  A
C797        C804   1.452       .  S
C798        C799   1.413       .  A
C799        C800   1.416       .  A
C799        C802   1.449       .  S
C800        C803   1.451       .  S
C801       N1138   1.157       .  T
C802        N807   1.157       .  T
C803        N805   1.157       .  T
C804        N806   1.157       .  T
N808       C1131   1.157       .  T
C809        C810   1.416       .  A
C809        C814   1.418       .  A
C810        C811   1.416       .  A
C810        C815   1.452       .  S
C811        C812   1.416       .  A
C811        C818   1.449       .  S
C812        C813   1.414       .  A
C813        C814   1.414       .  A
C813        C816   1.452       .  S
C814        C817   1.452       .  S
C815        N822   1.158       .  T
C816        N821   1.157       .  T
C817       N1149   1.157       .  T
C818        N820   1.157       .  T
N819       C1147   1.157       .  T
C823        C824   1.426       .  A
C823        C828   1.428       .  A
C824        C825   1.416       .  A
C824        C829   1.446       .  S
C825        C826   1.405       .  A
C825        C832   1.451       .  S
C826        C827   1.404       .  A
C827        C828   1.411       .  A
C827        C830   1.454       .  S
C828        C831   1.448       .  S
C829        N836   1.158       .  T
C830        N835   1.157       .  T
C831        N833   1.157       .  T
C832        N834   1.157       .  T
C837        C838   1.426       .  A
C837        C842   1.417       .  A
C838        C839   1.425       .  A
C838        C843   1.449       .  S
C839        C840   1.415       .  A
C839        C846   1.449       .  S
C840        C841   1.413       .  A
C841        C842   1.401       .  A
C841        C844   1.458       .  S
C842        C845   1.441       .  S
C843        N850   1.157       .  T
C844        N849   1.157   1_565  T
C845        N847   1.154       .  T
C846        N848   1.157       .  T
C851        C852   1.410       .  A
C851        C856   1.416       .  A
C852        C853   1.413       .  A
C852        C857   1.442       .  S
C853        C854   1.409       .  A
C853        C860   1.448       .  S
C854        C855   1.411       .  A
C855        C856   1.413       .  A
C855        C858   1.451       .  S
C856        C859   1.446       .  S
C857        N864   1.156       .  T
C858        N863   1.157       .  T
C859        N861   1.158       .  T
C860        N862   1.157       .  T
C865        C866   1.415       .  A
C865        C870   1.416       .  A
C866        C867   1.416       .  A
C866        C871   1.443       .  S
C867        C868   1.413       .  A
C867        C874   1.451       .  S
C868        C869   1.411       .  A
C869        C870   1.414       .  A
C869        C872   1.453       .  S
C870        C873   1.440       .  S
C871        N878   1.157       .  T
C872        N877   1.157       .  T
C873        N875   1.155       .  T
C874        N876   1.157       .  T
C879        C880   1.420       .  A
C879        C884   1.416       .  A
C880        C881   1.421       .  A
C880        C885   1.446       .  S
C881        C882   1.418       .  A
C881        C888   1.450       .  S
C882        C883   1.419       .  A
C883        C884   1.407       .  A
C883        C886   1.454       .  S
C884        C887   1.447       .  S
C885        N892   1.158       .  T
C886        N891   1.158       .  T
C887        N889   1.156       .  T
C888        N890   1.158       .  T
C893        C894   1.423       .  A
C893        C898   1.420       .  A
C894        C895   1.416       .  A
C894        C899   1.446       .  S
C895        C896   1.407       .  A
C895        C902   1.452       .  S
C896        C897   1.407       .  A
C897        C898   1.411       .  A
C897        C900   1.451       .  S
C898        C901   1.446       .  S
C899        N906   1.157       .  T
C900        N905   1.157       .  T
C901        N903   1.157       .  T
C902        N904   1.157       .  T
C907        C908   1.421       .  A
C907        C912   1.416       .  A
C908        C909   1.422       .  A
C908        C913   1.448       .  S
C909        C910   1.419       .  A
C909        C916   1.450       .  S
C910        C911   1.417       .  A
C911        C912   1.409       .  A
C911        C914   1.454       .  S
C912        C915   1.447       .  S
C913        N920   1.156       .  T
C914        N919   1.158       .  T
C915        N917   1.157       .  T
C916        N918   1.158       .  T
C921        C922   1.426       .  A
C921        C926   1.425       .  A
C922        C923   1.417       .  A
C922        C927   1.447       .  S
C923        C924   1.406       .  A
C923        C930   1.452       .  S
C924        C925   1.405       .  A
C925        C926   1.414       .  A
C925        C928   1.452       .  S
C926        C929   1.446       .  S
C927        N934   1.157       .  T
C928        N933   1.157       .  T
C929        N931   1.157       .  T
C930        N932   1.157       .  T
C935        C936   1.408       .  A
C935        C940   1.403       .  A
C936        C937   1.415       .  A
C936        C941   1.451       .  S
C937        C938   1.421       .  A
C937        C944   1.449       .  S
C938        C939   1.425       .  A
C939        C940   1.409       .  A
C939        C942   1.448       .  S
C940        C943   1.453       .  S
C941        N948   1.157       .  T
C942        N947   1.157       .  T
C943        N945   1.157       .  T
C944        N946   1.157       .  T
C949        C950   1.414       .  A
C949        C954   1.417       .  A
C950        C951   1.418       .  A
C950        C955   1.450       .  S
C951        C952   1.425       .  A
C951        C958   1.451       .  S
C952        C953   1.424       .  A
C953        C954   1.410       .  A
C953        C956   1.455       .  S
C954        C957   1.450       .  S
C955        N962   1.157       .  T
C956        N961   1.158       .  T
C957        N959   1.157       .  T
C958        N960   1.157       .  T
C963        C964   1.424       .  A
C963        C968   1.419       .  A
C964        C965   1.409       .  A
C964        C969   1.454       .  S
C965        C966   1.412       .  A
C965        C972   1.450       .  S
C966        C967   1.420       .  A
C967        C968   1.420       .  A
C967        C970   1.449       .  S
C968        C971   1.450       .  S
C969        N976   1.158       .  T
C970        N975   1.157       .  T
C971        N973   1.158       .  T
C972        N974   1.157       .  T
C977        C978   1.424       .  A
C977        C982   1.426       .  A
C978        C979   1.421       .  A
C978        C983   1.449       .  S
C979        C980   1.410       .  A
C979        C986   1.451       .  S
C980        C981   1.405       .  A
C981        C982   1.414       .  A
C981        C984   1.452       .  S
C982        C985   1.446       .  S
C983        N990   1.157       .  T
C984        N989   1.157       .  T
C985        N987   1.157       .  T
C991        H992   1.107       .  S
C991        C997   1.542       .  S
C991        C996   1.553       .  S
C991        C995   1.547       .  S
C993        H994   1.105       .  S
C993        C999   1.552       .  S
C993        C998   1.549       .  S
C993       C1000   1.558       .  S
C995        C998   1.381       .  D
C995       C1279   1.516       .  S
C996        C999   1.386       .  D
C996       C1237   1.517       .  S
C997       C1000   1.385       .  D
C997       C1296   1.511       .  S
C998       C1268   1.517       .  S
C999       C1251   1.525       .  S
C1000      C1307   1.527       .  S
C1001      H1002   1.103       .  S
C1001      C1007   1.562       .  S
C1001      C1006   1.561       .  S
C1001      C1005   1.542       .  S
C1003      H1004   1.099       .  S
C1003      C1009   1.549       .  S
C1003      C1008   1.563       .  S
C1003      C1010   1.544       .  S
C1005      C1008   1.379       .  D
C1005      C1223   1.523       .  S
C1006      C1009   1.397       .  D
C1006      C1195   1.524       .  S
C1007      C1010   1.391       .  D
C1007      C1153   1.528       .  S
C1008      C1209   1.519       .  S
C1009      C1181   1.529       .  S
C1010      C1167   1.526       .  S
C1011      N1012   1.360       .  A
C1011      N1016   1.361       .  A
C1011      C1142   1.496       .  S
N1012      C1013   1.360       .  A
C1013      N1014   1.358       .  A
C1013      C1265   1.480       .  S
N1014      C1015   1.358       .  A
C1015      N1016   1.362       .  A
C1015      C1198   1.497       .  S
C1017      N1018   1.363       .  A
C1017      N1022   1.362       .  A
C1017      C1128   1.488       .  S
N1018      C1019   1.361       .  A
C1019      N1020   1.354       .  A
C1019      C1184   1.488       .  S
N1020      C1021   1.357       .  A
C1021      N1022   1.360       .  A
C1021      C1282   1.516       .  S
C1023      N1028   1.368       .  A
C1023      C1111   1.499       .  S
N1024      C1025   1.361       .  A
C1025      N1026   1.347       .  A
C1025      C1293   1.516       .  S
C1027      N1028   1.360       .  A
C1027      C1170   1.503       .  S
C1029      N1034   1.357   1_545  A
C1029      C1097   1.497       .  S
N1030      C1031   1.368       .  A
C1031      C1310   1.494       .  S
N1032      C1033   1.357   1_545  A
C1033      N1034   1.352       .  A
C1033      C1156   1.480       .  S
C1035      N1036   1.361   1_655  A
C1035      N2360   1.364       .  A
C1035      C1086   1.497       .  S
N1036      C1037   1.357       .  A
C1037      N1038   1.357   1_455  A
C1037      C1226   1.485       .  S
N1038      C2359   1.358       .  A
C1039      N2358   1.358       .  A
C1039      N1040   1.363       .  A
C1039      C1254   1.487       .  S
N1040      C2355   1.364       .  A
C1041      N2362   1.368       .  A
C1041      N1046   1.367       .  A
C1041      C1069   1.502       .  S
N1042      C2361   1.368       .  A
N1042      C1043   1.363       .  A
C1043      N2364   1.354       .  A
C1043      C1212   1.513       .  S
N1044      C2363   1.354       .  A
N1044      C1045   1.353       .  A
C1045      N1046   1.361       .  A
C1045      C1240   1.516       .  S
Fe1047     O1058   1.981       .  S
Fe1047     O2043   2.072       .  S
Fe1047     O1060   2.073       .  S
Fe1047     O2372   2.076       .  S
Fe1048     O1058   1.980       .  S
Fe1048     O1059   2.078       .  S
Fe1049     O1718   1.976   1_455  S
Fe1049     O1054   2.072       .  S
Fe1049     O1050   2.068       .  S
O1051      C1065   1.270       .  A
O1052     Fe2367   2.077   1_455  S
O1052      C1057   1.272       .  A
O1053     Fe2037   2.072   1_455  S
O1054      C1066   1.272   1_455  A
O1055      C1068   1.271       .  A
C1056      C1114   1.493       .  S
C1056      O1061   1.271       .  A
C1057      C1100   1.497   1_565  S
O1058     Fe1709   1.976   1_565  S
O1059      C1062   1.271       .  A
O1060      C1062   1.271       .  A
C1062      C1139   1.499       .  S
O1063      C1068   1.271       .  A
O1064      C2386   1.272       .  A
C1065      C1072   1.496       .  S
C1065      O2387   1.269       .  A
C1066      C1083   1.496       .  S
C1066      O2384   1.272       .  A
O1067      C2385   1.269   1_455  A
C1068      C1125   1.488       .  S
C1069      C2390   1.419       .  A
C1069      C1074   1.416       .  A
C1070      C2389   1.419       .  A
C1070      C1071   1.418       .  A
C1070      C1075   1.450       .  S
C1071      C2392   1.413   1_455  A
C1071      C1078   1.451       .  S
C1072      C2391   1.413       .  A
C1072      C1073   1.416       .  A
C1073      C1074   1.414       .  A
C1073      C1076   1.453       .  S
C1074      C1077   1.452       .  S
C1075      N1082   1.157       .  T
C1076      N1081   1.158       .  T
C1077      N1079   1.157       .  T
C1078      N1080   1.157       .  T
C1083      C2404   1.415       .  A
C1083      C1088   1.417   1_655  A
C1084      C2403   1.415       .  A
C1084      C1085   1.418       .  A
C1084      C1089   1.451       .  S
C1085      C2406   1.417       .  A
C1085      C1092   1.449       .  S
C1086      C2405   1.417       .  A
C1086      C1087   1.415   1_655  A
C1087      C1088   1.411       .  A
C1087      C1090   1.453       .  S
C1088      C1091   1.453       .  S
C1089      N1096   1.158       .  T
C1090      N1095   1.157       .  T
C1091      N1093   1.158       .  T
C1092      N1094   1.157       .  T
C1097      C1102   1.417   1_545  A
C1098      C1099   1.418       .  A
C1098      C1103   1.448       .  S
C1099      C1106   1.451       .  S
C1100      C1101   1.416   1_545  A
C1101      C1102   1.412       .  A
C1101      C1104   1.453       .  S
C1102      C1105   1.453       .  S
C1103      N1110   1.157       .  T
C1104      N1109   1.157       .  T
C1105      N1107   1.157       .  T
C1106      N1108   1.157       .  T
C1111      C1116   1.419       .  A
C1112      C1113   1.412       .  A
C1112      C1117   1.452       .  S
C1113      C1114   1.415       .  A
C1113      C1120   1.453       .  S
C1115      C1116   1.417       .  A
C1115      C1118   1.451       .  S
C1116      C1119   1.451       .  S
C1117      N1124   1.157       .  T
C1118      N1123   1.157       .  T
C1119      N1121   1.157       .  T
C1120      N1122   1.157       .  T
C1125      C1126   1.413       .  A
C1125      C1130   1.413       .  A
C1126      C1127   1.410       .  A
C1126      C1131   1.451       .  S
C1127      C1128   1.413       .  A
C1127      C1134   1.452       .  S
C1128      C1129   1.413       .  A
C1129      C1130   1.416       .  A
C1129      C1132   1.449       .  S
C1130      C1133   1.451       .  S
C1132      N1137   1.157       .  T
C1133      N1135   1.157       .  T
C1134      N1136   1.157       .  T
C1139      C1140   1.416       .  A
C1139      C1144   1.418       .  A
C1140      C1141   1.416       .  A
C1140      C1145   1.452       .  S
C1141      C1142   1.416       .  A
C1141      C1148   1.449       .  S
C1142      C1143   1.414       .  A
C1143      C1144   1.414       .  A
C1143      C1146   1.452       .  S
C1144      C1147   1.452       .  S
C1145      N1152   1.158       .  T
C1146      N1151   1.157       .  T
C1148      N1150   1.157       .  T
C1153      C1154   1.426       .  A
C1153      C1158   1.428       .  A
C1154      C1155   1.416       .  A
C1154      C1159   1.446       .  S
C1155      C1156   1.405       .  A
C1155      C1162   1.451       .  S
C1156      C1157   1.404       .  A
C1157      C1158   1.411       .  A
C1157      C1160   1.454       .  S
C1158      C1161   1.448       .  S
C1159      N1166   1.158       .  T
C1160      N1165   1.157       .  T
C1161      N1163   1.157       .  T
C1162      N1164   1.157       .  T
C1167      C1168   1.426       .  A
C1167      C1172   1.417       .  A
C1168      C1169   1.425       .  A
C1168      C1173   1.449       .  S
C1169      C1170   1.415       .  A
C1169      C1176   1.449       .  S
C1170      C1171   1.413       .  A
C1171      C1172   1.401       .  A
C1171      C1174   1.458       .  S
C1172      C1175   1.441       .  S
C1173      N1180   1.157       .  T
C1174      N1179   1.157   1_565  T
C1175      N1177   1.154       .  T
C1176      N1178   1.157       .  T
C1181      C1182   1.410       .  A
C1181      C1186   1.416       .  A
C1182      C1183   1.413       .  A
C1182      C1187   1.442       .  S
C1183      C1184   1.409       .  A
C1183      C1190   1.448       .  S
C1184      C1185   1.411       .  A
C1185      C1186   1.413       .  A
C1185      C1188   1.451       .  S
C1186      C1189   1.446       .  S
C1187      N1194   1.156       .  T
C1188      N1193   1.157       .  T
C1189      N1191   1.158       .  T
C1190      N1192   1.157       .  T
C1195      C1196   1.415       .  A
C1195      C1200   1.416       .  A
C1196      C1197   1.416       .  A
C1196      C1201   1.443       .  S
C1197      C1198   1.413       .  A
C1197      C1204   1.451       .  S
C1198      C1199   1.411       .  A
C1199      C1200   1.414       .  A
C1199      C1202   1.453       .  S
C1200      C1203   1.440       .  S
C1201      N1208   1.157       .  T
C1202      N1207   1.157       .  T
C1203      N1205   1.155       .  T
C1204      N1206   1.157       .  T
C1209      C1210   1.420       .  A
C1209      C1214   1.416       .  A
C1210      C1211   1.421       .  A
C1210      C1215   1.446       .  S
C1211      C1212   1.418       .  A
C1211      C1218   1.450       .  S
C1212      C1213   1.419       .  A
C1213      C1214   1.407       .  A
C1213      C1216   1.454       .  S
C1214      C1217   1.447       .  S
C1215      N1222   1.158       .  T
C1216      N1221   1.158       .  T
C1217      N1219   1.156       .  T
C1218      N1220   1.158       .  T
C1223      C1224   1.423       .  A
C1223      C1228   1.420       .  A
C1224      C1225   1.416       .  A
C1224      C1229   1.446       .  S
C1225      C1226   1.407       .  A
C1225      C1232   1.452       .  S
C1226      C1227   1.407       .  A
C1227      C1228   1.411       .  A
C1227      C1230   1.451       .  S
C1228      C1231   1.446       .  S
C1229      N1236   1.157       .  T
C1230      N1235   1.157       .  T
C1231      N1233   1.157       .  T
C1232      N1234   1.157       .  T
C1237      C1238   1.421       .  A
C1237      C1242   1.416       .  A
C1238      C1239   1.422       .  A
C1238      C1243   1.448       .  S
C1239      C1240   1.419       .  A
C1239      C1246   1.450       .  S
C1240      C1241   1.417       .  A
C1241      C1242   1.409       .  A
C1241      C1244   1.454       .  S
C1242      C1245   1.447       .  S
C1243      N1250   1.156       .  T
C1244      N1249   1.158       .  T
C1245      N1247   1.157       .  T
C1246      N1248   1.158       .  T
C1251      C1252   1.426       .  A
C1251      C1256   1.425       .  A
C1252      C1253   1.417       .  A
C1252      C1257   1.447       .  S
C1253      C1254   1.406       .  A
C1253      C1260   1.452       .  S
C1254      C1255   1.405       .  A
C1255      C1256   1.414       .  A
C1255      C1258   1.452       .  S
C1256      C1259   1.446       .  S
C1257      N1264   1.157       .  T
C1258      N1263   1.157       .  T
C1259      N1261   1.157       .  T
C1260      N1262   1.157       .  T
C1265      C1266   1.408       .  A
C1265      C1270   1.403       .  A
C1266      C1267   1.415       .  A
C1266      C1271   1.451       .  S
C1267      C1268   1.421       .  A
C1267      C1274   1.449       .  S
C1268      C1269   1.425       .  A
C1269      C1270   1.409       .  A
C1269      C1272   1.448       .  S
C1270      C1273   1.453       .  S
C1271      N1278   1.157       .  T
C1272      N1277   1.157       .  T
C1273      N1275   1.157       .  T
C1274      N1276   1.157       .  T
C1279      C1280   1.414       .  A
C1279      C1284   1.417       .  A
C1280      C1281   1.418       .  A
C1280      C1285   1.450       .  S
C1281      C1282   1.425       .  A
C1281      C1288   1.451       .  S
C1282      C1283   1.424       .  A
C1283      C1284   1.410       .  A
C1283      C1286   1.455       .  S
C1284      C1287   1.450       .  S
C1285      N1292   1.157       .  T
C1286      N1291   1.158       .  T
C1287      N1289   1.157       .  T
C1288      N1290   1.157       .  T
C1293      C1294   1.424       .  A
C1293      C1298   1.419       .  A
C1294      C1295   1.409       .  A
C1294      C1299   1.454       .  S
C1295      C1296   1.412       .  A
C1295      C1302   1.450       .  S
C1296      C1297   1.420       .  A
C1297      C1298   1.420       .  A
C1297      C1300   1.449       .  S
C1298      C1301   1.450       .  S
C1299      N1306   1.158       .  T
C1300      N1305   1.157       .  T
C1301      N1303   1.158       .  T
C1302      N1304   1.157       .  T
C1307      C1308   1.424       .  A
C1307      C1312   1.426       .  A
C1308      C1309   1.421       .  A
C1308      C1313   1.449       .  S
C1309      C1310   1.410       .  A
C1309      C1316   1.451       .  S
C1310      C1311   1.405       .  A
C1311      C1312   1.414       .  A
C1311      C1314   1.452       .  S
C1312      C1315   1.446       .  S
C1313      N1320   1.157       .  T
C1314      N1319   1.157       .  T
C1315      N1317   1.157       .  T
C1321      H1322   1.107       .  S
C1321      C1327   1.542       .  S
C1321      C1326   1.553       .  S
C1321      C1325   1.547       .  S
C1323      H1324   1.105       .  S
C1323      C1329   1.552       .  S
C1323      C1328   1.549       .  S
C1323      C1330   1.558       .  S
C1325      C1328   1.381       .  D
C1325      C1609   1.516       .  S
C1326      C1329   1.386       .  D
C1326      C1567   1.517       .  S
C1327      C1330   1.385       .  D
C1327      C1626   1.511       .  S
C1328      C1598   1.517       .  S
C1329      C1581   1.524       .  S
C1330      C1637   1.527       .  S
C1331      H1332   1.104       .  S
C1331      C1337   1.562       .  S
C1331      C1336   1.561       .  S
C1331      C1335   1.542       .  S
C1333      H1334   1.099       .  S
C1333      C1339   1.548       .  S
C1333      C1338   1.562       .  S
C1333      C1340   1.544       .  S
C1335      C1338   1.379       .  D
C1335      C1553   1.523       .  S
C1336      C1339   1.397       .  D
C1336      C1525   1.524       .  S
C1337      C1340   1.391       .  D
C1337      C1483   1.527       .  S
C1338      C1539   1.519       .  S
C1339      C1511   1.529       .  S
C1340      C1497   1.526       .  S
C1341      N1342   1.360       .  A
C1341      N1346   1.361       .  A
C1341      C1472   1.496       .  S
N1342      C1343   1.360       .  A
C1343      N1344   1.358       .  A
C1343      C1595   1.480       .  S
N1344      C1345   1.358       .  A
C1345      N1346   1.362       .  A
C1345      C1528   1.497       .  S
C1347      N1348   1.363       .  A
C1347      N1352   1.362       .  A
C1347      C1458   1.488       .  S
N1348      C1349   1.361       .  A
C1349      N1350   1.354       .  A
C1349      C1514   1.488       .  S
N1350      C1351   1.357       .  A
C1351      N1352   1.360       .  A
C1351      C1612   1.516       .  S
C1353      N2014   1.370       .  A
C1353      N1358   1.368       .  A
C1353      C1441   1.499       .  S
N1354      C2013   1.370   1_545  A
N1354      C1355   1.361       .  A
C1355      N1356   1.347   1_545  A
C1355      C1623   1.516       .  S
N1356      C2017   1.350       .  A
C1357      N2016   1.350       .  A
C1357      N1358   1.360       .  A
C1357      C1500   1.503       .  S
C1359      N2020   1.367       .  A
C1359      N1364   1.357       .  A
C1359      C1427   1.497       .  S
N1360      C2019   1.367       .  A
N1360      C1361   1.368       .  A
C1361      N2022   1.359       .  A
C1361      C1640   1.494       .  S
N1362      C2021   1.359       .  A
N1362      C1363   1.357       .  A
C1363      N1364   1.352       .  A
C1363      C1486   1.480       .  S
C1365      N1366   1.361       .  A
C1365      C1416   1.497       .  S
N1366      C1367   1.357       .  A
C1367      N1368   1.357       .  A
C1367      C1556   1.485       .  S
C1369      N1370   1.363       .  A
C1369      C1584   1.487       .  S
C1371      N1376   1.367   1_455  A
C1371      C1399   1.502       .  S
N1372      C1373   1.363       .  A
C1373      C1542   1.513       .  S
N1374      C1375   1.353   1_455  A
C1375      N1376   1.361       .  A
C1375      C1570   1.516       .  S
Fe1377     O1388   1.981       .  S
Fe1377     O1723   2.076       .  S
Fe1377     O1390   2.073   1_556  S
Fe1378     O1388   1.980       .  S
Fe1378     O2371   2.076       .  S
Fe1378     O1715   2.071       .  S
Fe1378     O1389   2.078   1_556  S
Fe1378     O2054   2.073   1_556  S
Fe1379     O1727   2.071   1_554  S
Fe1379     O1384   2.072       .  S
Fe1379     O1721   2.072   1_554  S
Fe1379     O1380   2.068       .  S
O1380      C2047   1.269   1_545  A
O1381     Fe2368   2.076   1_545  S
O1381      C1395   1.270       .  A
O1382      C1387   1.272       .  A
O1383      C2046   1.271       .  A
O1384      C1396   1.272       .  A
O1385     Fe1708   2.071       .  S
O1385      C1398   1.271       .  A
C1386      C1444   1.493       .  S
C1386      O2043   1.271       .  A
C1386      O1391   1.271   1_565  A
C1387      C1430   1.497       .  S
C1387      O2040   1.269       .  A
O1389      C1392   1.271       .  A
O1390      C1392   1.271       .  A
O1391     Fe1709   2.072       .  S
C1392      C1469   1.500       .  S
O1393     Fe1707   2.076       .  S
O1393      C1398   1.271       .  A
O1394     Fe2038   2.073   1_544  S
C1395      C1402   1.496       .  S
C1396      C1413   1.496       .  S
O1397     Fe1709   2.070       .  S
C1398      C1455   1.488       .  S
C1399      C1404   1.416   1_455  A
C1400      C1401   1.418       .  A
C1400      C1405   1.450       .  S
C1401      C1408   1.451       .  S
C1402      C1403   1.416       .  A
C1403      C1404   1.414       .  A
C1403      C1406   1.453       .  S
C1404      C1407   1.452       .  S
C1405      N1412   1.157       .  T
C1406      N1411   1.158       .  T
C1407      N1409   1.157       .  T
C1408      N1410   1.157       .  T
C1413      C1418   1.417       .  A
C1414      C1415   1.418       .  A
C1414      C1419   1.451       .  S
C1415      C1422   1.449       .  S
C1416      C1417   1.415       .  A
C1417      C1418   1.411       .  A
C1417      C1420   1.453       .  S
C1418      C1421   1.453       .  S
C1419      N1426   1.158       .  T
C1420      N1425   1.157       .  T
C1421      N1423   1.158       .  T
C1422      N1424   1.157       .  T
C1427      C2088   1.415       .  A
C1427      C1432   1.417       .  A
C1428      C2087   1.415       .  A
C1428      C1429   1.418       .  A
C1428      C1433   1.448       .  S
C1429      C2090   1.416       .  A
C1429      C1436   1.451       .  S
C1430      C2089   1.416       .  A
C1430      C1431   1.416       .  A
C1431      C1432   1.412       .  A
C1431      C1434   1.453       .  S
C1432      C1435   1.453       .  S
C1433      N1440   1.157       .  T
C1434      N1439   1.157       .  T
C1435      N1437   1.157       .  T
C1436      N1438   1.157       .  T
C1441      C2102   1.417       .  A
C1441      C1446   1.419       .  A
C1442      C2101   1.417   1_545  A
C1442      C1443   1.412       .  A
C1442      C1447   1.452       .  S
C1443      C1444   1.415   1_545  A
C1443      C1450   1.453       .  S
C1444      C2105   1.413       .  A
C1445      C2104   1.413       .  A
C1445      C1446   1.417       .  A
C1445      C1448   1.451       .  S
C1446      C1449   1.451       .  S
C1447      N1454   1.157       .  T
C1448      N1453   1.157       .  T
C1449      N1451   1.157       .  T
C1450      N1452   1.157       .  T
C1455      C1456   1.413       .  A
C1455      C1460   1.413       .  A
C1456      C1457   1.410       .  A
C1456      C1461   1.451       .  S
C1457      C1458   1.413       .  A
C1457      C1464   1.452       .  S
C1458      C1459   1.413       .  A
C1459      C1460   1.416       .  A
C1459      C1462   1.449       .  S
C1460      C1463   1.451       .  S
C1461      N1798   1.157       .  T
C1462      N1467   1.157       .  T
C1463      N1465   1.157       .  T
C1464      N1466   1.157       .  T
N1468      C1791   1.157       .  T
C1469      C1470   1.416       .  A
C1469      C1474   1.418       .  A
C1470      C1471   1.416       .  A
C1470      C1475   1.452       .  S
C1471      C1472   1.416       .  A
C1471      C1478   1.449       .  S
C1472      C1473   1.414       .  A
C1473      C1474   1.414       .  A
C1473      C1476   1.452       .  S
C1474      C1477   1.452       .  S
C1475      N1482   1.158       .  T
C1476      N1481   1.157       .  T
C1477      N1809   1.157       .  T
C1478      N1480   1.157       .  T
N1479      C1807   1.157       .  T
C1483      C1484   1.426       .  A
C1483      C1488   1.428       .  A
C1484      C1485   1.416       .  A
C1484      C1489   1.446       .  S
C1485      C1486   1.405       .  A
C1485      C1492   1.451       .  S
C1486      C1487   1.404       .  A
C1487      C1488   1.411       .  A
C1487      C1490   1.454       .  S
C1488      C1491   1.448       .  S
C1489      N1496   1.158       .  T
C1490      N1495   1.157       .  T
C1491      N1493   1.157       .  T
C1492      N1494   1.157       .  T
C1497      C1498   1.426       .  A
C1497      C1502   1.417       .  A
C1498      C1499   1.426       .  A
C1498      C1503   1.449       .  S
C1499      C1500   1.415       .  A
C1499      C1506   1.449       .  S
C1500      C1501   1.412       .  A
C1501      C1502   1.401       .  A
C1501      C1504   1.458       .  S
C1502      C1505   1.441       .  S
C1503      N1510   1.157       .  T
C1504      N1509   1.157       .  T
C1505      N1507   1.154       .  T
C1506      N1508   1.157       .  T
C1511      C1512   1.410       .  A
C1511      C1516   1.416       .  A
C1512      C1513   1.413       .  A
C1512      C1517   1.442       .  S
C1513      C1514   1.409       .  A
C1513      C1520   1.448       .  S
C1514      C1515   1.412       .  A
C1515      C1516   1.413       .  A
C1515      C1518   1.451       .  S
C1516      C1519   1.446       .  S
C1517      N1524   1.156       .  T
C1518      N1523   1.157       .  T
C1519      N1521   1.158       .  T
C1520      N1522   1.157       .  T
C1525      C1526   1.415       .  A
C1525      C1530   1.416       .  A
C1526      C1527   1.416       .  A
C1526      C1531   1.443       .  S
C1527      C1528   1.413       .  A
C1527      C1534   1.451       .  S
C1528      C1529   1.411       .  A
C1529      C1530   1.414       .  A
C1529      C1532   1.453       .  S
C1530      C1533   1.440       .  S
C1531      N1538   1.157       .  T
C1532      N1537   1.157       .  T
C1533      N1535   1.155       .  T
C1534      N1536   1.157       .  T
C1539      C1540   1.420       .  A
C1539      C1544   1.416       .  A
C1540      C1541   1.421       .  A
C1540      C1545   1.446       .  S
C1541      C1542   1.418       .  A
C1541      C1548   1.450       .  S
C1542      C1543   1.419       .  A
C1543      C1544   1.407       .  A
C1543      C1546   1.454       .  S
C1544      C1547   1.447       .  S
C1545      N1552   1.158       .  T
C1546      N1551   1.158       .  T
C1547      N1549   1.156       .  T
C1548      N1550   1.158       .  T
C1553      C1554   1.423       .  A
C1553      C1558   1.420       .  A
C1554      C1555   1.416       .  A
C1554      C1559   1.446       .  S
C1555      C1556   1.407       .  A
C1555      C1562   1.452       .  S
C1556      C1557   1.407       .  A
C1557      C1558   1.411       .  A
C1557      C1560   1.451       .  S
C1558      C1561   1.446       .  S
C1559      N1566   1.157       .  T
C1560      N1565   1.157       .  T
C1561      N1563   1.157       .  T
C1562      N1564   1.157       .  T
C1567      C1568   1.421       .  A
C1567      C1572   1.416       .  A
C1568      C1569   1.423       .  A
C1568      C1573   1.448       .  S
C1569      C1570   1.419       .  A
C1569      C1576   1.450       .  S
C1570      C1571   1.417       .  A
C1571      C1572   1.409       .  A
C1571      C1574   1.454       .  S
C1572      C1575   1.447       .  S
C1573      N1580   1.156       .  T
C1574      N1579   1.158       .  T
C1575      N1577   1.157       .  T
C1576      N1578   1.158       .  T
C1581      C1582   1.426       .  A
C1581      C1586   1.425       .  A
C1582      C1583   1.417       .  A
C1582      C1587   1.447       .  S
C1583      C1584   1.406       .  A
C1583      C1590   1.452       .  S
C1584      C1585   1.405       .  A
C1585      C1586   1.414       .  A
C1585      C1588   1.452       .  S
C1586      C1589   1.446       .  S
C1587      N1594   1.157       .  T
C1588      N1593   1.157       .  T
C1589      N1591   1.157       .  T
C1590      N1592   1.157       .  T
C1595      C1596   1.408       .  A
C1595      C1600   1.403       .  A
C1596      C1597   1.415       .  A
C1596      C1601   1.451       .  S
C1597      C1598   1.422       .  A
C1597      C1604   1.449       .  S
C1598      C1599   1.425       .  A
C1599      C1600   1.409       .  A
C1599      C1602   1.448       .  S
C1600      C1603   1.453       .  S
C1601      N1608   1.157       .  T
C1602      N1607   1.157       .  T
C1603      N1605   1.157       .  T
C1604      N1606   1.157       .  T
C1609      C1610   1.414       .  A
C1609      C1614   1.417       .  A
C1610      C1611   1.418       .  A
C1610      C1615   1.450       .  S
C1611      C1612   1.425       .  A
C1611      C1618   1.451       .  S
C1612      C1613   1.424       .  A
C1613      C1614   1.410       .  A
C1613      C1616   1.455       .  S
C1614      C1617   1.450       .  S
C1615      N1622   1.157       .  T
C1616      N1621   1.158       .  T
C1617      N1619   1.157       .  T
C1618      N1620   1.157       .  T
C1623      C1624   1.425       .  A
C1623      C1628   1.419       .  A
C1624      C1625   1.409       .  A
C1624      C1629   1.454       .  S
C1625      C1626   1.412       .  A
C1625      C1632   1.450       .  S
C1626      C1627   1.420       .  A
C1627      C1628   1.420       .  A
C1627      C1630   1.449       .  S
C1628      C1631   1.450       .  S
C1629      N1636   1.158   1_545  T
C1630      N1635   1.157       .  T
C1631      N1633   1.158       .  T
C1632      N1634   1.157       .  T
C1637      C1638   1.424       .  A
C1637      C1642   1.426       .  A
C1638      C1639   1.421       .  A
C1638      C1643   1.449       .  S
C1639      C1640   1.410       .  A
C1639      C1646   1.451       .  S
C1640      C1641   1.405       .  A
C1641      C1642   1.414       .  A
C1641      C1644   1.452       .  S
C1642      C1645   1.446       .  S
C1643      N1650   1.157       .  T
C1644      N1649   1.157       .  T
C1645      N1647   1.157       .  T
C1646      N2308   1.157       .  T
N1648      C2306   1.157       .  T
C1651      H1652   1.107       .  S
C1651      C1657   1.542       .  S
C1651      C1656   1.553       .  S
C1651      C1655   1.547       .  S
C1653      H1654   1.105       .  S
C1653      C1659   1.552       .  S
C1653      C1658   1.549       .  S
C1653      C1660   1.558       .  S
C1655      C1658   1.381       .  D
C1655      C1939   1.516       .  S
C1656      C1659   1.386       .  D
C1656      C1897   1.517       .  S
C1657      C1660   1.385       .  D
C1657      C1956   1.511       .  S
C1658      C1928   1.517       .  S
C1659      C1911   1.524       .  S
C1660      C1967   1.527       .  S
C1661      H1662   1.104       .  S
C1661      C1667   1.562       .  S
C1661      C1666   1.561       .  S
C1661      C1665   1.542       .  S
C1663      H1664   1.099       .  S
C1663      C1669   1.548       .  S
C1663      C1668   1.562       .  S
C1663      C1670   1.544       .  S
C1665      C1668   1.379       .  D
C1665      C1883   1.523       .  S
C1666      C1669   1.397       .  D
C1666      C1855   1.524       .  S
C1667      C1670   1.391       .  D
C1667      C1813   1.527       .  S
C1668      C1869   1.519       .  S
C1669      C1841   1.529       .  S
C1670      C1827   1.526       .  S
C1671      N1672   1.360       .  A
C1671      N1676   1.361       .  A
C1671      C1802   1.496       .  S
N1672      C1673   1.360       .  A
C1673      N1674   1.358       .  A
C1673      C1925   1.480       .  S
N1674      C1675   1.358       .  A
C1675      N1676   1.362       .  A
C1675      C1858   1.497       .  S
C1677      N1678   1.363       .  A
C1677      N1682   1.362       .  A
C1677      C1788   1.488       .  S
N1678      C1679   1.361       .  A
C1679      N1680   1.354       .  A
C1679      C1844   1.488       .  S
N1680      C1681   1.357       .  A
C1681      N1682   1.360       .  A
C1681      C1942   1.516       .  S
C1683      N2344   1.370       .  A
C1683      N1688   1.368       .  A
C1683      C1771   1.499       .  S
N1684      C2343   1.370   1_545  A
N1684      C1685   1.361       .  A
C1685      N1686   1.347   1_545  A
C1685      C1953   1.516       .  S
N1686      C2347   1.350       .  A
C1687      N2346   1.350       .  A
C1687      N1688   1.360       .  A
C1687      C1830   1.503       .  S
C1689      N2350   1.367       .  A
C1689      N1694   1.357       .  A
C1689      C1757   1.497       .  S
N1690      C2349   1.367       .  A
N1690      C1691   1.368       .  A
C1691      N2352   1.359       .  A
C1691      C1970   1.494       .  S
N1692      C2351   1.359       .  A
N1692      C1693   1.357       .  A
C1693      N1694   1.352       .  A
C1693      C1816   1.480       .  S
C1695      N1696   1.361       .  A
C1695      C1746   1.497       .  S
N1696      C1697   1.357       .  A
C1697      N1698   1.357       .  A
C1697      C1886   1.485       .  S
C1699      N1700   1.363       .  A
C1699      C1914   1.487       .  S
C1701      N1706   1.367   1_455  A
C1701      C1729   1.502       .  S
N1702      C1703   1.363       .  A
C1703      C1872   1.513       .  S
N1704      C1705   1.353   1_455  A
C1705      N1706   1.361       .  A
C1705      C1900   1.516       .  S
Fe1707     O1718   1.981       .  S
Fe1707     O1720   2.073       .  S
Fe1708     O1718   1.980       .  S
Fe1708     O2041   2.076       .  S
Fe1708     O1719   2.078       .  S
Fe1708     O2384   2.073       .  S
Fe1709     O1714   2.072       .  S
Fe1709     O1710   2.068       .  S
O1710      C2377   1.269   1_545  A
O1711     Fe2038   2.076   1_545  S
O1711      C1725   1.270       .  A
O1712      C1717   1.272       .  A
O1713      C2376   1.271       .  A
O1714      C1726   1.272       .  A
O1715      C1728   1.271       .  A
C1716      C1774   1.493       .  S
C1716      O2373   1.271       .  A
C1716      O1721   1.271   1_565  A
C1717      C1760   1.497       .  S
C1717      O2370   1.269       .  A
O1719      C1722   1.271       .  A
O1720      C1722   1.271       .  A
C1722      C1799   1.500       .  S
O1723      C1728   1.271       .  A
O1724     Fe2368   2.073   1_545  S
C1725      C1732   1.496       .  S
C1726      C1743   1.496       .  S
C1728      C1785   1.488       .  S
C1729      C1734   1.416   1_455  A
C1730      C1731   1.418       .  A
C1730      C1735   1.450       .  S
C1731      C1738   1.451       .  S
C1732      C1733   1.416       .  A
C1733      C1734   1.414       .  A
C1733      C1736   1.453       .  S
C1734      C1737   1.452       .  S
C1735      N1742   1.157       .  T
C1736      N1741   1.158       .  T
C1737      N1739   1.157       .  T
C1738      N1740   1.157       .  T
C1743      C1748   1.417       .  A
C1744      C1745   1.418       .  A
C1744      C1749   1.451       .  S
C1745      C1752   1.449       .  S
C1746      C1747   1.415       .  A
C1747      C1748   1.411       .  A
C1747      C1750   1.453       .  S
C1748      C1751   1.453       .  S
C1749      N1756   1.158       .  T
C1750      N1755   1.157       .  T
C1751      N1753   1.158       .  T
C1752      N1754   1.157       .  T
C1757      C2418   1.415       .  A
C1757      C1762   1.417       .  A
C1758      C2417   1.415       .  A
C1758      C1759   1.418       .  A
C1758      C1763   1.448       .  S
C1759      C2420   1.416       .  A
C1759      C1766   1.451       .  S
C1760      C2419   1.416       .  A
C1760      C1761   1.416       .  A
C1761      C1762   1.412       .  A
C1761      C1764   1.453       .  S
C1762      C1765   1.453       .  S
C1763      N1770   1.157       .  T
C1764      N1769   1.157       .  T
C1765      N1767   1.157       .  T
C1766      N1768   1.157       .  T
C1771      C2432   1.417       .  A
C1771      C1776   1.419       .  A
C1772      C2431   1.416   1_545  A
C1772      C1773   1.412       .  A
C1772      C1777   1.452       .  S
C1773      C1774   1.415   1_545  A
C1773      C1780   1.453       .  S
C1774      C2435   1.413       .  A
C1775      C2434   1.413       .  A
C1775      C1776   1.417       .  A
C1775      C1778   1.451       .  S
C1776      C1779   1.451       .  S
C1777      N1784   1.157       .  T
C1778      N1783   1.157       .  T
C1779      N1781   1.157       .  T
C1780      N1782   1.157       .  T
C1785      C1786   1.413       .  A
C1785      C1790   1.413       .  A
C1786      C1787   1.410       .  A
C1786      C1791   1.451       .  S
C1787      C1788   1.413       .  A
C1787      C1794   1.452       .  S
C1788      C1789   1.413       .  A
C1789      C1790   1.416       .  A
C1789      C1792   1.449       .  S
C1790      C1793   1.451       .  S
C1792      N1797   1.157       .  T
C1793      N1795   1.157       .  T
C1794      N1796   1.157       .  T
C1799      C1800   1.416       .  A
C1799      C1804   1.418       .  A
C1800      C1801   1.416       .  A
C1800      C1805   1.452       .  S
C1801      C1802   1.416       .  A
C1801      C1808   1.449       .  S
C1802      C1803   1.414       .  A
C1803      C1804   1.414       .  A
C1803      C1806   1.452       .  S
C1804      C1807   1.452       .  S
C1805      N1812   1.158       .  T
C1806      N1811   1.157       .  T
C1808      N1810   1.157       .  T
C1813      C1814   1.426       .  A
C1813      C1818   1.428       .  A
C1814      C1815   1.416       .  A
C1814      C1819   1.446       .  S
C1815      C1816   1.405       .  A
C1815      C1822   1.451       .  S
C1816      C1817   1.404       .  A
C1817      C1818   1.411       .  A
C1817      C1820   1.454       .  S
C1818      C1821   1.448       .  S
C1819      N1826   1.158       .  T
C1820      N1825   1.157       .  T
C1821      N1823   1.157       .  T
C1822      N1824   1.157       .  T
C1827      C1828   1.426       .  A
C1827      C1832   1.417       .  A
C1828      C1829   1.426       .  A
C1828      C1833   1.449       .  S
C1829      C1830   1.415       .  A
C1829      C1836   1.449       .  S
C1830      C1831   1.412       .  A
C1831      C1832   1.401       .  A
C1831      C1834   1.458       .  S
C1832      C1835   1.441       .  S
C1833      N1840   1.157       .  T
C1834      N1839   1.157       .  T
C1835      N1837   1.154       .  T
C1836      N1838   1.157       .  T
C1841      C1842   1.410       .  A
C1841      C1846   1.416       .  A
C1842      C1843   1.413       .  A
C1842      C1847   1.442       .  S
C1843      C1844   1.409       .  A
C1843      C1850   1.448       .  S
C1844      C1845   1.412       .  A
C1845      C1846   1.413       .  A
C1845      C1848   1.451       .  S
C1846      C1849   1.446       .  S
C1847      N1854   1.156       .  T
C1848      N1853   1.157       .  T
C1849      N1851   1.158       .  T
C1850      N1852   1.157       .  T
C1855      C1856   1.415       .  A
C1855      C1860   1.416       .  A
C1856      C1857   1.416       .  A
C1856      C1861   1.443       .  S
C1857      C1858   1.413       .  A
C1857      C1864   1.451       .  S
C1858      C1859   1.411       .  A
C1859      C1860   1.414       .  A
C1859      C1862   1.453       .  S
C1860      C1863   1.440       .  S
C1861      N1868   1.157       .  T
C1862      N1867   1.157       .  T
C1863      N1865   1.155       .  T
C1864      N1866   1.157       .  T
C1869      C1870   1.420       .  A
C1869      C1874   1.416       .  A
C1870      C1871   1.421       .  A
C1870      C1875   1.446       .  S
C1871      C1872   1.418       .  A
C1871      C1878   1.450       .  S
C1872      C1873   1.419       .  A
C1873      C1874   1.407       .  A
C1873      C1876   1.454       .  S
C1874      C1877   1.447       .  S
C1875      N1882   1.158       .  T
C1876      N1881   1.158       .  T
C1877      N1879   1.156       .  T
C1878      N1880   1.158       .  T
C1883      C1884   1.423       .  A
C1883      C1888   1.420       .  A
C1884      C1885   1.416       .  A
C1884      C1889   1.446       .  S
C1885      C1886   1.407       .  A
C1885      C1892   1.452       .  S
C1886      C1887   1.407       .  A
C1887      C1888   1.411       .  A
C1887      C1890   1.451       .  S
C1888      C1891   1.446       .  S
C1889      N1896   1.157       .  T
C1890      N1895   1.157       .  T
C1891      N1893   1.157       .  T
C1892      N1894   1.157       .  T
C1897      C1898   1.421       .  A
C1897      C1902   1.416       .  A
C1898      C1899   1.423       .  A
C1898      C1903   1.448       .  S
C1899      C1900   1.419       .  A
C1899      C1906   1.450       .  S
C1900      C1901   1.417       .  A
C1901      C1902   1.409       .  A
C1901      C1904   1.454       .  S
C1902      C1905   1.447       .  S
C1903      N1910   1.156       .  T
C1904      N1909   1.158       .  T
C1905      N1907   1.157       .  T
C1906      N1908   1.158       .  T
C1911      C1912   1.426       .  A
C1911      C1916   1.425       .  A
C1912      C1913   1.417       .  A
C1912      C1917   1.447       .  S
C1913      C1914   1.406       .  A
C1913      C1920   1.452       .  S
C1914      C1915   1.405       .  A
C1915      C1916   1.414       .  A
C1915      C1918   1.452       .  S
C1916      C1919   1.446       .  S
C1917      N1924   1.157       .  T
C1918      N1923   1.157       .  T
C1919      N1921   1.157       .  T
C1920      N1922   1.157       .  T
C1925      C1926   1.408       .  A
C1925      C1930   1.403       .  A
C1926      C1927   1.415       .  A
C1926      C1931   1.451       .  S
C1927      C1928   1.422       .  A
C1927      C1934   1.449       .  S
C1928      C1929   1.425       .  A
C1929      C1930   1.409       .  A
C1929      C1932   1.448       .  S
C1930      C1933   1.453       .  S
C1931      N1938   1.157       .  T
C1932      N1937   1.157       .  T
C1933      N1935   1.157       .  T
C1934      N1936   1.157       .  T
C1939      C1940   1.414       .  A
C1939      C1944   1.417       .  A
C1940      C1941   1.418       .  A
C1940      C1945   1.450       .  S
C1941      C1942   1.425       .  A
C1941      C1948   1.451       .  S
C1942      C1943   1.424       .  A
C1943      C1944   1.410       .  A
C1943      C1946   1.455       .  S
C1944      C1947   1.450       .  S
C1945      N1952   1.157       .  T
C1946      N1951   1.158       .  T
C1947      N1949   1.157       .  T
C1948      N1950   1.157       .  T
C1953      C1954   1.425       .  A
C1953      C1958   1.419       .  A
C1954      C1955   1.409       .  A
C1954      C1959   1.454       .  S
C1955      C1956   1.412       .  A
C1955      C1962   1.450       .  S
C1956      C1957   1.420       .  A
C1957      C1958   1.420       .  A
C1957      C1960   1.449       .  S
C1958      C1961   1.450       .  S
C1959      N1966   1.158   1_545  T
C1960      N1965   1.157       .  T
C1961      N1963   1.158       .  T
C1962      N1964   1.157       .  T
C1967      C1968   1.424       .  A
C1967      C1972   1.426       .  A
C1968      C1969   1.421       .  A
C1968      C1973   1.449       .  S
C1969      C1970   1.410       .  A
C1969      C1976   1.451       .  S
C1970      C1971   1.405       .  A
C1971      C1972   1.414       .  A
C1971      C1974   1.452       .  S
C1972      C1975   1.446       .  S
C1973      N1980   1.157       .  T
C1974      N1979   1.157       .  T
C1975      N1977   1.157       .  T
C1976      N2638   1.157       .  T
N1978      C2636   1.157       .  T
C1981      H1982   1.107       .  S
C1981      C1987   1.542       .  S
C1981      C1986   1.553       .  S
C1981      C1985   1.547       .  S
C1983      H1984   1.105       .  S
C1983      C1989   1.552       .  S
C1983      C1988   1.549       .  S
C1983      C1990   1.557       .  S
C1985      C1988   1.381       .  D
C1985      C2269   1.516       .  S
C1986      C1989   1.386       .  D
C1986      C2227   1.517       .  S
C1987      C1990   1.385       .  D
C1987      C2286   1.511       .  S
C1988      C2258   1.517       .  S
C1989      C2241   1.524       .  S
C1990      C2297   1.527       .  S
C1991      H1992   1.104       .  S
C1991      C1997   1.562       .  S
C1991      C1996   1.561       .  S
C1991      C1995   1.542       .  S
C1993      H1994   1.100       .  S
C1993      C1999   1.548       .  S
C1993      C1998   1.562       .  S
C1993      C2000   1.544       .  S
C1995      C1998   1.379       .  D
C1995      C2213   1.523       .  S
C1996      C1999   1.397       .  D
C1996      C2185   1.524       .  S
C1997      C2000   1.391       .  D
C1997      C2143   1.527       .  S
C1998      C2199   1.519       .  S
C1999      C2171   1.529       .  S
C2000      C2157   1.525       .  S
C2001      N2002   1.360       .  A
C2001      N2006   1.361       .  A
C2001      C2132   1.496       .  S
N2002      C2003   1.360       .  A
C2003      N2004   1.358       .  A
C2003      C2255   1.480       .  S
N2004      C2005   1.358       .  A
C2005      N2006   1.362       .  A
C2005      C2188   1.496       .  S
C2007      N2008   1.363       .  A
C2007      N2012   1.362       .  A
C2007      C2118   1.488       .  S
N2008      C2009   1.361       .  A
C2009      N2010   1.354       .  A
C2009      C2174   1.488       .  S
N2010      C2011   1.357       .  A
C2011      N2012   1.360       .  A
C2011      C2272   1.516       .  S
C2013      N2018   1.368       .  A
C2013      C2101   1.499       .  S
N2014      C2015   1.361       .  A
C2015      N2016   1.347       .  A
C2015      C2283   1.516       .  S
C2017      N2018   1.360       .  A
C2017      C2160   1.503       .  S
C2019      N2024   1.357   1_545  A
C2019      C2087   1.497       .  S
N2020      C2021   1.368       .  A
C2021      C2300   1.494       .  S
N2022      C2023   1.357   1_545  A
C2023      N2024   1.352       .  A
C2023      C2146   1.480       .  S
C2025      N2026   1.361       .  A
C2025      C2076   1.497       .  S
N2026      C2027   1.357       .  A
C2027      N2028   1.357       .  A
C2027      C2216   1.485       .  S
C2029      N2030   1.363       .  A
C2029      C2244   1.487       .  S
C2031      N2036   1.367   1_455  A
C2031      C2059   1.502       .  S
N2032      C2033   1.363       .  A
C2033      C2202   1.513       .  S
N2034      C2035   1.353   1_455  A
C2035      N2036   1.361       .  A
C2035      C2230   1.516       .  S
Fe2037     O2048   1.981       .  S
Fe2037     O2383   2.076       .  S
Fe2037     O2050   2.074   1_556  S
Fe2038     O2048   1.980       .  S
Fe2038     O2375   2.071       .  S
Fe2038     O2049   2.078   1_556  S
Fe2039     O2387   2.071   1_554  S
Fe2039     O2044   2.072       .  S
Fe2039     O2381   2.072   1_554  S
Fe2039     O2040   2.068       .  S
O2041      C2055   1.270       .  A
O2042      C2047   1.272       .  A
O2044      C2056   1.272       .  A
O2045     Fe2368   2.071       .  S
O2045      C2058   1.271       .  A
C2046      C2104   1.493       .  S
C2046      O2051   1.271       .  A
C2047      C2090   1.497   1_565  S
O2049      C2052   1.271       .  A
O2050      C2052   1.271       .  A
O2051     Fe2369   2.072       .  S
C2052      C2129   1.499       .  S
O2053     Fe2367   2.076       .  S
O2053      C2058   1.271       .  A
C2055      C2062   1.496       .  S
C2056      C2073   1.496       .  S
O2057     Fe2369   2.071       .  S
C2058      C2115   1.488       .  S
C2059      C2064   1.417   1_455  A
C2060      C2061   1.418       .  A
C2060      C2065   1.450       .  S
C2061      C2068   1.451       .  S
C2062      C2063   1.416       .  A
C2063      C2064   1.414       .  A
C2063      C2066   1.453       .  S
C2064      C2067   1.452       .  S
C2065      N2072   1.157       .  T
C2066      N2071   1.158       .  T
C2067      N2069   1.157       .  T
C2068      N2070   1.157       .  T
C2073      C2078   1.417       .  A
C2074      C2075   1.418       .  A
C2074      C2079   1.451       .  S
C2075      C2082   1.449       .  S
C2076      C2077   1.415       .  A
C2077      C2078   1.411       .  A
C2077      C2080   1.453       .  S
C2078      C2081   1.453       .  S
C2079      N2086   1.158       .  T
C2080      N2085   1.157       .  T
C2081      N2083   1.158       .  T
C2082      N2084   1.157       .  T
C2087      C2092   1.417   1_545  A
C2088      C2089   1.418       .  A
C2088      C2093   1.448       .  S
C2089      C2096   1.451       .  S
C2090      C2091   1.416   1_545  A
C2091      C2092   1.412       .  A
C2091      C2094   1.453       .  S
C2092      C2095   1.453       .  S
C2093      N2100   1.157       .  T
C2094      N2099   1.157       .  T
C2095      N2097   1.157       .  T
C2096      N2098   1.157       .  T
C2101      C2106   1.419       .  A
C2102      C2103   1.412       .  A
C2102      C2107   1.452       .  S
C2103      C2104   1.415       .  A
C2103      C2110   1.453       .  S
C2105      C2106   1.417       .  A
C2105      C2108   1.451       .  S
C2106      C2109   1.451       .  S
C2107      N2114   1.157       .  T
C2108      N2113   1.157       .  T
C2109      N2111   1.157       .  T
C2110      N2112   1.157       .  T
C2115      C2116   1.413       .  A
C2115      C2120   1.413       .  A
C2116      C2117   1.410       .  A
C2116      C2121   1.451       .  S
C2117      C2118   1.413       .  A
C2117      C2124   1.452       .  S
C2118      C2119   1.413       .  A
C2119      C2120   1.416       .  A
C2119      C2122   1.449       .  S
C2120      C2123   1.451       .  S
C2121      N2458   1.157       .  T
C2122      N2127   1.157       .  T
C2123      N2125   1.157       .  T
C2124      N2126   1.157       .  T
N2128      C2451   1.157       .  T
C2129      C2130   1.416       .  A
C2129      C2134   1.418       .  A
C2130      C2131   1.416       .  A
C2130      C2135   1.452       .  S
C2131      C2132   1.416       .  A
C2131      C2138   1.449       .  S
C2132      C2133   1.414       .  A
C2133      C2134   1.414       .  A
C2133      C2136   1.452       .  S
C2134      C2137   1.452       .  S
C2135      N2142   1.158       .  T
C2136      N2141   1.157       .  T
C2137      N2469   1.157       .  T
C2138      N2140   1.157       .  T
N2139      C2467   1.157       .  T
C2143      C2144   1.426       .  A
C2143      C2148   1.428       .  A
C2144      C2145   1.416       .  A
C2144      C2149   1.446       .  S
C2145      C2146   1.405       .  A
C2145      C2152   1.451       .  S
C2146      C2147   1.404       .  A
C2147      C2148   1.411       .  A
C2147      C2150   1.454       .  S
C2148      C2151   1.448       .  S
C2149      N2156   1.157       .  T
C2150      N2155   1.157       .  T
C2151      N2153   1.157       .  T
C2152      N2154   1.157       .  T
C2157      C2158   1.427       .  A
C2157      C2162   1.417       .  A
C2158      C2159   1.425       .  A
C2158      C2163   1.449       .  S
C2159      C2160   1.415       .  A
C2159      C2166   1.449       .  S
C2160      C2161   1.412       .  A
C2161      C2162   1.401       .  A
C2161      C2164   1.458       .  S
C2162      C2165   1.442       .  S
C2163      N2170   1.157       .  T
C2164      N2169   1.157   1_565  T
C2165      N2167   1.154       .  T
C2166      N2168   1.157       .  T
C2171      C2172   1.410       .  A
C2171      C2176   1.416       .  A
C2172      C2173   1.413       .  A
C2172      C2177   1.442       .  S
C2173      C2174   1.409       .  A
C2173      C2180   1.447       .  S
C2174      C2175   1.412       .  A
C2175      C2176   1.413       .  A
C2175      C2178   1.451       .  S
C2176      C2179   1.445       .  S
C2177      N2184   1.156       .  T
C2178      N2183   1.157       .  T
C2179      N2181   1.158       .  T
C2180      N2182   1.157       .  T
C2185      C2186   1.415       .  A
C2185      C2190   1.416       .  A
C2186      C2187   1.416       .  A
C2186      C2191   1.443       .  S
C2187      C2188   1.413       .  A
C2187      C2194   1.451       .  S
C2188      C2189   1.411       .  A
C2189      C2190   1.414       .  A
C2189      C2192   1.453       .  S
C2190      C2193   1.440       .  S
C2191      N2198   1.157       .  T
C2192      N2197   1.157       .  T
C2193      N2195   1.155       .  T
C2194      N2196   1.157       .  T
C2199      C2200   1.420       .  A
C2199      C2204   1.416       .  A
C2200      C2201   1.421       .  A
C2200      C2205   1.446       .  S
C2201      C2202   1.418       .  A
C2201      C2208   1.450       .  S
C2202      C2203   1.419       .  A
C2203      C2204   1.407       .  A
C2203      C2206   1.454       .  S
C2204      C2207   1.447       .  S
C2205      N2212   1.158       .  T
C2206      N2211   1.158       .  T
C2207      N2209   1.156       .  T
C2208      N2210   1.158       .  T
C2213      C2214   1.423       .  A
C2213      C2218   1.420       .  A
C2214      C2215   1.416       .  A
C2214      C2219   1.446       .  S
C2215      C2216   1.408       .  A
C2215      C2222   1.452       .  S
C2216      C2217   1.407       .  A
C2217      C2218   1.411       .  A
C2217      C2220   1.451       .  S
C2218      C2221   1.446       .  S
C2219      N2226   1.157       .  T
C2220      N2225   1.157       .  T
C2221      N2223   1.157       .  T
C2222      N2224   1.157       .  T
C2227      C2228   1.421       .  A
C2227      C2232   1.416       .  A
C2228      C2229   1.423       .  A
C2228      C2233   1.448       .  S
C2229      C2230   1.419       .  A
C2229      C2236   1.450       .  S
C2230      C2231   1.418       .  A
C2231      C2232   1.409       .  A
C2231      C2234   1.454       .  S
C2232      C2235   1.447       .  S
C2233      N2240   1.156       .  T
C2234      N2239   1.158       .  T
C2235      N2237   1.157       .  T
C2236      N2238   1.158       .  T
C2241      C2242   1.426       .  A
C2241      C2246   1.425       .  A
C2242      C2243   1.417       .  A
C2242      C2247   1.447       .  S
C2243      C2244   1.406       .  A
C2243      C2250   1.452       .  S
C2244      C2245   1.405       .  A
C2245      C2246   1.414       .  A
C2245      C2248   1.452       .  S
C2246      C2249   1.446       .  S
C2247      N2254   1.157       .  T
C2248      N2253   1.157       .  T
C2249      N2251   1.157       .  T
C2250      N2252   1.157       .  T
C2255      C2256   1.408       .  A
C2255      C2260   1.403       .  A
C2256      C2257   1.415       .  A
C2256      C2261   1.451       .  S
C2257      C2258   1.422       .  A
C2257      C2264   1.449       .  S
C2258      C2259   1.425       .  A
C2259      C2260   1.409       .  A
C2259      C2262   1.448       .  S
C2260      C2263   1.453       .  S
C2261      N2268   1.157       .  T
C2262      N2267   1.157       .  T
C2263      N2265   1.157       .  T
C2264      N2266   1.157       .  T
C2269      C2270   1.414       .  A
C2269      C2274   1.418       .  A
C2270      C2271   1.418       .  A
C2270      C2275   1.450       .  S
C2271      C2272   1.425       .  A
C2271      C2278   1.451       .  S
C2272      C2273   1.424       .  A
C2273      C2274   1.410       .  A
C2273      C2276   1.455       .  S
C2274      C2277   1.450       .  S
C2275      N2282   1.157       .  T
C2276      N2281   1.158       .  T
C2277      N2279   1.157       .  T
C2278      N2280   1.157       .  T
C2283      C2284   1.425       .  A
C2283      C2288   1.419       .  A
C2284      C2285   1.408       .  A
C2284      C2289   1.454       .  S
C2285      C2286   1.412       .  A
C2285      C2292   1.450       .  S
C2286      C2287   1.420       .  A
C2287      C2288   1.420       .  A
C2287      C2290   1.449       .  S
C2288      C2291   1.450       .  S
C2289      N2296   1.158       .  T
C2290      N2295   1.157       .  T
C2291      N2293   1.158       .  T
C2292      N2294   1.157       .  T
C2297      C2298   1.424       .  A
C2297      C2302   1.426       .  A
C2298      C2299   1.421       .  A
C2298      C2303   1.449       .  S
C2299      C2300   1.410       .  A
C2299      C2306   1.451       .  S
C2300      C2301   1.405       .  A
C2301      C2302   1.414       .  A
C2301      C2304   1.452       .  S
C2302      C2305   1.446       .  S
C2303      N2310   1.157       .  T
C2304      N2309   1.157       .  T
C2305      N2307   1.157       .  T
C2311      H2312   1.107       .  S
C2311      C2317   1.542       .  S
C2311      C2316   1.553       .  S
C2311      C2315   1.547       .  S
C2313      H2314   1.105       .  S
C2313      C2319   1.552       .  S
C2313      C2318   1.549       .  S
C2313      C2320   1.557       .  S
C2315      C2318   1.381       .  D
C2315      C2599   1.516       .  S
C2316      C2319   1.386       .  D
C2316      C2557   1.517       .  S
C2317      C2320   1.385       .  D
C2317      C2616   1.511       .  S
C2318      C2588   1.517       .  S
C2319      C2571   1.524       .  S
C2320      C2627   1.527       .  S
C2321      H2322   1.104       .  S
C2321      C2327   1.562       .  S
C2321      C2326   1.561       .  S
C2321      C2325   1.542       .  S
C2323      H2324   1.100       .  S
C2323      C2329   1.548       .  S
C2323      C2328   1.562       .  S
C2323      C2330   1.544       .  S
C2325      C2328   1.379       .  D
C2325      C2543   1.523       .  S
C2326      C2329   1.397       .  D
C2326      C2515   1.524       .  S
C2327      C2330   1.391       .  D
C2327      C2473   1.527       .  S
C2328      C2529   1.519       .  S
C2329      C2501   1.529       .  S
C2330      C2487   1.525       .  S
C2331      N2332   1.360       .  A
C2331      N2336   1.361       .  A
C2331      C2462   1.496       .  S
N2332      C2333   1.360       .  A
C2333      N2334   1.358       .  A
C2333      C2585   1.480       .  S
N2334      C2335   1.358       .  A
C2335      N2336   1.362       .  A
C2335      C2518   1.496       .  S
C2337      N2338   1.363       .  A
C2337      N2342   1.362       .  A
C2337      C2448   1.488       .  S
N2338      C2339   1.361       .  A
C2339      N2340   1.354       .  A
C2339      C2504   1.488       .  S
N2340      C2341   1.357       .  A
C2341      N2342   1.360       .  A
C2341      C2602   1.516       .  S
C2343      N2348   1.368       .  A
C2343      C2431   1.499       .  S
N2344      C2345   1.361       .  A
C2345      N2346   1.347       .  A
C2345      C2613   1.516       .  S
C2347      N2348   1.360       .  A
C2347      C2490   1.503       .  S
C2349      N2354   1.357   1_545  A
C2349      C2417   1.497       .  S
N2350      C2351   1.368       .  A
C2351      C2630   1.494       .  S
N2352      C2353   1.357   1_545  A
C2353      N2354   1.352       .  A
C2353      C2476   1.480       .  S
C2355      N2356   1.361       .  A
C2355      C2406   1.497       .  S
N2356      C2357   1.357       .  A
C2357      N2358   1.357       .  A
C2357      C2546   1.485       .  S
C2359      N2360   1.363       .  A
C2359      C2574   1.487       .  S
C2361      N2366   1.367   1_455  A
C2361      C2389   1.502       .  S
N2362      C2363   1.363       .  A
C2363      C2532   1.513       .  S
N2364      C2365   1.353   1_455  A
C2365      N2366   1.361       .  A
C2365      C2560   1.516       .  S
Fe2367     O2378   1.981       .  S
Fe2367     O2380   2.074       .  S
Fe2368     O2378   1.980       .  S
Fe2368     O2379   2.078       .  S
Fe2369     O2374   2.072       .  S
Fe2369     O2370   2.068       .  S
O2371      C2385   1.270       .  A
O2372      C2377   1.272       .  A
O2374      C2386   1.272       .  A
O2375      C2388   1.271       .  A
C2376      C2434   1.493       .  S
C2376      O2381   1.271       .  A
C2377      C2420   1.497   1_565  S
O2379      C2382   1.271       .  A
O2380      C2382   1.271       .  A
C2382      C2459   1.499       .  S
O2383      C2388   1.271       .  A
C2385      C2392   1.496       .  S
C2386      C2403   1.496       .  S
C2388      C2445   1.488       .  S
C2389      C2394   1.417   1_455  A
C2390      C2391   1.418       .  A
C2390      C2395   1.450       .  S
C2391      C2398   1.451       .  S
C2392      C2393   1.416       .  A
C2393      C2394   1.414       .  A
C2393      C2396   1.453       .  S
C2394      C2397   1.452       .  S
C2395      N2402   1.157       .  T
C2396      N2401   1.158       .  T
C2397      N2399   1.157       .  T
C2398      N2400   1.157       .  T
C2403      C2408   1.417       .  A
C2404      C2405   1.418       .  A
C2404      C2409   1.451       .  S
C2405      C2412   1.449       .  S
C2406      C2407   1.415       .  A
C2407      C2408   1.411       .  A
C2407      C2410   1.453       .  S
C2408      C2411   1.453       .  S
C2409      N2416   1.158       .  T
C2410      N2415   1.157       .  T
C2411      N2413   1.158       .  T
C2412      N2414   1.157       .  T
C2417      C2422   1.417   1_545  A
C2418      C2419   1.418       .  A
C2418      C2423   1.448       .  S
C2419      C2426   1.451       .  S
C2420      C2421   1.416   1_545  A
C2421      C2422   1.412       .  A
C2421      C2424   1.453       .  S
C2422      C2425   1.453       .  S
C2423      N2430   1.157       .  T
C2424      N2429   1.157       .  T
C2425      N2427   1.157       .  T
C2426      N2428   1.157       .  T
C2431      C2436   1.419       .  A
C2432      C2433   1.412       .  A
C2432      C2437   1.452       .  S
C2433      C2434   1.415       .  A
C2433      C2440   1.453       .  S
C2435      C2436   1.417       .  A
C2435      C2438   1.451       .  S
C2436      C2439   1.451       .  S
C2437      N2444   1.157       .  T
C2438      N2443   1.157       .  T
C2439      N2441   1.157       .  T
C2440      N2442   1.157       .  T
C2445      C2446   1.413       .  A
C2445      C2450   1.413       .  A
C2446      C2447   1.410       .  A
C2446      C2451   1.451       .  S
C2447      C2448   1.413       .  A
C2447      C2454   1.452       .  S
C2448      C2449   1.413       .  A
C2449      C2450   1.416       .  A
C2449      C2452   1.449       .  S
C2450      C2453   1.451       .  S
C2452      N2457   1.157       .  T
C2453      N2455   1.157       .  T
C2454      N2456   1.157       .  T
C2459      C2460   1.416       .  A
C2459      C2464   1.418       .  A
C2460      C2461   1.416       .  A
C2460      C2465   1.452       .  S
C2461      C2462   1.416       .  A
C2461      C2468   1.449       .  S
C2462      C2463   1.414       .  A
C2463      C2464   1.414       .  A
C2463      C2466   1.452       .  S
C2464      C2467   1.452       .  S
C2465      N2472   1.158       .  T
C2466      N2471   1.157       .  T
C2468      N2470   1.157       .  T
C2473      C2474   1.426       .  A
C2473      C2478   1.428       .  A
C2474      C2475   1.416       .  A
C2474      C2479   1.446       .  S
C2475      C2476   1.405       .  A
C2475      C2482   1.451       .  S
C2476      C2477   1.404       .  A
C2477      C2478   1.411       .  A
C2477      C2480   1.454       .  S
C2478      C2481   1.448       .  S
C2479      N2486   1.157       .  T
C2480      N2485   1.157       .  T
C2481      N2483   1.157       .  T
C2482      N2484   1.157       .  T
C2487      C2488   1.427       .  A
C2487      C2492   1.417       .  A
C2488      C2489   1.425       .  A
C2488      C2493   1.449       .  S
C2489      C2490   1.415       .  A
C2489      C2496   1.449       .  S
C2490      C2491   1.412       .  A
C2491      C2492   1.401       .  A
C2491      C2494   1.458       .  S
C2492      C2495   1.442       .  S
C2493      N2500   1.157       .  T
C2494      N2499   1.157   1_565  T
C2495      N2497   1.154       .  T
C2496      N2498   1.157       .  T
C2501      C2502   1.410       .  A
C2501      C2506   1.416       .  A
C2502      C2503   1.413       .  A
C2502      C2507   1.442       .  S
C2503      C2504   1.409       .  A
C2503      C2510   1.448       .  S
C2504      C2505   1.412       .  A
C2505      C2506   1.413       .  A
C2505      C2508   1.451       .  S
C2506      C2509   1.445       .  S
C2507      N2514   1.156       .  T
C2508      N2513   1.157       .  T
C2509      N2511   1.158       .  T
C2510      N2512   1.157       .  T
C2515      C2516   1.415       .  A
C2515      C2520   1.416       .  A
C2516      C2517   1.416       .  A
C2516      C2521   1.443       .  S
C2517      C2518   1.413       .  A
C2517      C2524   1.451       .  S
C2518      C2519   1.411       .  A
C2519      C2520   1.414       .  A
C2519      C2522   1.453       .  S
C2520      C2523   1.440       .  S
C2521      N2528   1.157       .  T
C2522      N2527   1.157       .  T
C2523      N2525   1.155       .  T
C2524      N2526   1.157       .  T
C2529      C2530   1.420       .  A
C2529      C2534   1.416       .  A
C2530      C2531   1.421       .  A
C2530      C2535   1.446       .  S
C2531      C2532   1.418       .  A
C2531      C2538   1.450       .  S
C2532      C2533   1.419       .  A
C2533      C2534   1.407       .  A
C2533      C2536   1.454       .  S
C2534      C2537   1.447       .  S
C2535      N2542   1.158       .  T
C2536      N2541   1.158       .  T
C2537      N2539   1.156       .  T
C2538      N2540   1.158       .  T
C2543      C2544   1.423       .  A
C2543      C2548   1.420       .  A
C2544      C2545   1.416       .  A
C2544      C2549   1.446       .  S
C2545      C2546   1.407       .  A
C2545      C2552   1.452       .  S
C2546      C2547   1.407       .  A
C2547      C2548   1.411       .  A
C2547      C2550   1.451       .  S
C2548      C2551   1.446       .  S
C2549      N2556   1.157       .  T
C2550      N2555   1.157       .  T
C2551      N2553   1.157       .  T
C2552      N2554   1.157       .  T
C2557      C2558   1.421       .  A
C2557      C2562   1.416       .  A
C2558      C2559   1.423       .  A
C2558      C2563   1.448       .  S
C2559      C2560   1.419       .  A
C2559      C2566   1.450       .  S
C2560      C2561   1.418       .  A
C2561      C2562   1.409       .  A
C2561      C2564   1.454       .  S
C2562      C2565   1.447       .  S
C2563      N2570   1.156       .  T
C2564      N2569   1.158       .  T
C2565      N2567   1.157       .  T
C2566      N2568   1.158       .  T
C2571      C2572   1.426       .  A
C2571      C2576   1.425       .  A
C2572      C2573   1.417       .  A
C2572      C2577   1.447       .  S
C2573      C2574   1.406       .  A
C2573      C2580   1.452       .  S
C2574      C2575   1.405       .  A
C2575      C2576   1.414       .  A
C2575      C2578   1.452       .  S
C2576      C2579   1.446       .  S
C2577      N2584   1.157       .  T
C2578      N2583   1.157       .  T
C2579      N2581   1.157       .  T
C2580      N2582   1.157       .  T
C2585      C2586   1.408       .  A
C2585      C2590   1.403       .  A
C2586      C2587   1.415       .  A
C2586      C2591   1.451       .  S
C2587      C2588   1.422       .  A
C2587      C2594   1.449       .  S
C2588      C2589   1.425       .  A
C2589      C2590   1.409       .  A
C2589      C2592   1.448       .  S
C2590      C2593   1.453       .  S
C2591      N2598   1.157       .  T
C2592      N2597   1.157       .  T
C2593      N2595   1.157       .  T
C2594      N2596   1.157       .  T
C2599      C2600   1.414       .  A
C2599      C2604   1.418       .  A
C2600      C2601   1.418       .  A
C2600      C2605   1.450       .  S
C2601      C2602   1.425       .  A
C2601      C2608   1.451       .  S
C2602      C2603   1.424       .  A
C2603      C2604   1.410       .  A
C2603      C2606   1.455       .  S
C2604      C2607   1.450       .  S
C2605      N2612   1.157       .  T
C2606      N2611   1.158       .  T
C2607      N2609   1.157       .  T
C2608      N2610   1.157       .  T
C2613      C2614   1.425       .  A
C2613      C2618   1.419       .  A
C2614      C2615   1.408       .  A
C2614      C2619   1.454       .  S
C2615      C2616   1.412       .  A
C2615      C2622   1.450       .  S
C2616      C2617   1.420       .  A
C2617      C2618   1.420       .  A
C2617      C2620   1.449       .  S
C2618      C2621   1.450       .  S
C2619      N2626   1.158       .  T
C2620      N2625   1.157       .  T
C2621      N2623   1.158       .  T
C2622      N2624   1.157       .  T
C2627      C2628   1.424       .  A
C2627      C2632   1.426       .  A
C2628      C2629   1.421       .  A
C2628      C2633   1.449       .  S
C2629      C2630   1.410       .  A
C2629      C2636   1.451       .  S
C2630      C2631   1.405       .  A
C2631      C2632   1.414       .  A
C2631      C2634   1.452       .  S
C2632      C2635   1.446       .  S
C2633      N2640   1.157       .  T
C2634      N2639   1.157       .  T
C2635      N2637   1.157       .  T
