geometry optimzed in LAMMPS
_audit_creation_date              2020-11-30 
_audit_creation_method            'lammps2cif' 
_symmetry_space_group_name_H-M    'P1' 
_symmetry_Int_Tables_number       1 
_symmetry_cell_setting            triclinic 
loop_ 
_symmetry_equiv_pos_as_xyz 
  x,y,z 
_cell_length_a                    27.50918421 
_cell_length_b                    28.068077697754664 
_cell_length_c                    28.089437471713875 
_cell_angle_alpha                 89.85544622173991 
_cell_angle_beta                  89.35214167260284 
_cell_angle_gamma                 89.35840095328399 
loop_ 
_atom_site_label 
_atom_site_type_symbol 
_atom_site_fract_x 
_atom_site_fract_y 
_atom_site_fract_z 
_atom_site_charge 
C1          C  0.83304841  0.90460752  0.84649937    -0.01500
N2          N  0.79305285  0.91493540  0.41886729    -0.05200
N3          N  0.75219644  0.92295531  0.44379124    -0.57300
N4          N  0.85997288  0.95954097  0.32766987    -0.04800
N5          N  0.86109140  0.99634129  0.29855409    -0.59400
N6          N  0.82830015  0.92788115  0.31358777    -0.04400
N7          N  0.80721288  0.94250730  0.27426470    -0.57300
N8          N  0.82559878  0.94645892  0.43069873    -0.04100
N9          N  0.80831699  0.97592877  0.46357472    -0.59800
C10         C  0.76258377  0.96108559  0.47197801     0.97000
C11         C  0.82874582  0.98462643  0.26504116     0.96800
N12         N  0.00194358  0.92632714  0.36387774    -0.05300
N13         N  0.04041356  0.93848781  0.33774546    -0.57900
N14         N  0.92836685  0.93088217  0.46189240    -0.03500
N15         N  0.90424649  0.93662661  0.50198697    -0.59100
N16         N  0.96284141  0.89848668  0.46699499    -0.05400
N17         N  0.96335055  0.88306919  0.51149248    -0.58100
N18         N  0.96749843  0.95864554  0.35974542    -0.03100
N19         N  0.98161758  0.99347398  0.33105954    -0.59200
Mn20       Mn  0.89644505  0.95045950  0.39497142     1.18400
C21         C  0.02722497  0.98060950  0.31760921     0.99100
C22         C  0.92605838  0.90694346  0.53282706     0.99800
N23         N  0.82377560  0.81346963  0.29772659    -0.05400
N24         N  0.79069488  0.80146554  0.26590150    -0.61700
N25         N  0.83166758  0.76522769  0.40149442    -0.04200
N26         N  0.80828220  0.72434711  0.40235575    -0.62400
N27         N  0.79965664  0.80109000  0.39985695    -0.04900
N28         N  0.75515058  0.78499343  0.40075318    -0.62000
N29         N  0.85713525  0.77940263  0.30089935    -0.03800
N30         N  0.84687310  0.74419206  0.27119519    -0.62700
Mn31       Mn  0.81095951  0.86487365  0.35762656     1.10700
C32         C  0.80579456  0.75857389  0.24887466     1.00300
C33         C  0.76117870  0.73784773  0.40106085     1.00400
N34         N  0.98029611  0.79243934  0.44436654    -0.04900
N35         N  0.00918483  0.77675319  0.47851645    -0.60300
N36         N  0.97014101  0.78830898  0.32559842    -0.04200
N37         N  0.97211535  0.78497259  0.27899086    -0.57000
N38         N  0.00207589  0.81990987  0.34008123    -0.05500
N39         N  0.02591291  0.83833874  0.30354527    -0.59800
N40         N  0.94938806  0.75946689  0.43178701    -0.04500
N41         N  0.95753450  0.72010765  0.45747266    -0.57000
Mn42       Mn  0.98904980  0.85948767  0.40474978     1.20200
Mn43       Mn  0.90314994  0.77174665  0.36585717     1.10100
Cl44       Cl  0.89956012  0.86116995  0.38067055    -0.85000
C45         C  0.99472183  0.73175654  0.48699540     0.97300
C46         C  0.00640759  0.81639774  0.26619684     0.97100
N47         N  0.97600345  0.41362259  0.92740099    -0.05200
N48         N  0.97600105  0.45370033  0.90280152    -0.57300
N49         N  0.96310047  0.30897314  0.98855848    -0.04800
N50         N  0.97368568  0.28134381  0.02535785    -0.59400
N51         N  0.99767351  0.30676943  0.95626365    -0.04400
N52         N  0.03283670  0.27741066  0.97022111    -0.57300
N53         N  0.94173067  0.41536600  0.96073432    -0.04100
N54         N  0.91861700  0.45660280  0.95905281    -0.59800
C55         C  0.93906570  0.47872741  0.92192693     0.97000
C56         C  0.01729030  0.26184023  0.01342432     0.96800
N57         N  0.81939920  0.28224832  0.95390176    -0.05300
N58         N  0.78891738  0.25172266  0.97282538    -0.57900
N59         N  0.83284546  0.39851853  0.97132477    -0.03500
N60         N  0.81950058  0.43404268  0.99963756    -0.59100
N61         N  0.79924398  0.39009563  0.93972157    -0.05400
N62         N  0.76195223  0.42016356  0.94621329    -0.58100
N63         N  0.85281795  0.29285071  0.98537035    -0.03100
N64         N  0.84560969  0.27014706  0.02564435    -0.59200
Mn65       Mn  0.89844815  0.35379856  0.97790027     1.18400
C66         C  0.80595140  0.24440253  0.01731853     0.99100
C67         C  0.77545314  0.44764945  0.98361036     0.99800
N68         N  0.99533913  0.28313922  0.84956495    -0.05400
N69         N  0.02948798  0.25021829  0.85212223    -0.61700
N70         N  0.95659399  0.38112246  0.78979631    -0.04200
N71         N  0.96379231  0.41065789  0.75319128    -0.62400
N72         N  0.98909384  0.38901691  0.82263548    -0.04900
N73         N  0.01870947  0.42362580  0.80938136    -0.62000
N74         N  0.96278691  0.27246319  0.81735986    -0.03800
N75         N  0.97435410  0.23139953  0.79772302    -0.62700
Mn76       Mn  0.99155571  0.34803846  0.88954193     1.10700
C77         C  0.01587778  0.21794554  0.81988070     1.00300
C78         C  0.00270405  0.43718963  0.76611090     1.00400
N79         N  0.80685438  0.37426384  0.82808176    -0.04900
N80         N  0.77710214  0.41039047  0.82092068    -0.60300
N81         N  0.84546685  0.26496014  0.80471904    -0.04200
N82         N  0.83185462  0.23718384  0.76897861    -0.57000
N83         N  0.81087437  0.26672161  0.83765815    -0.05500
N84         N  0.77349871  0.24023050  0.82427501    -0.59800
N85         N  0.84128691  0.37278882  0.79497339    -0.04500
N86         N  0.83562694  0.40801456  0.76445106    -0.57000
Mn87       Mn  0.80769683  0.32751515  0.89008656     1.20200
Mn88       Mn  0.90208413  0.32213917  0.79993716     1.10100
Cl89       Cl  0.89962147  0.33730865  0.88909139    -0.85000
C90         C  0.79570008  0.43072040  0.78151074     0.97300
C91         C  0.78714228  0.22114968  0.78165248     0.97100
N92         N  0.42790674  0.76908643  0.95955626    -0.05200
N93         N  0.45548581  0.73081241  0.96787180    -0.57300
N94         N  0.33251585  0.83384074  0.99861652    -0.04800
N95         N  0.29461942  0.85507127  0.01880232    -0.59400
N96         N  0.31840893  0.80177580  0.96725848    -0.04400
N97         N  0.27067645  0.80142762  0.96552272    -0.57300
N98         N  0.44086983  0.80402090  0.98738013    -0.04100
N99         N  0.47694524  0.79044322  0.01535790    -0.59800
C100        C  0.48606780  0.74473393  0.00273494     0.97000
C101        C  0.25692603  0.83508922  0.99718313     0.96800
N102        N  0.35461415  0.96859963  0.95946753    -0.05300
N103        N  0.32530529  0.00461543  0.97147111    -0.57900
N104        N  0.46499029  0.90940316  0.96475187    -0.03500
N105        N  0.51067226  0.89585197  0.97026005    -0.59100
N106        N  0.46184499  0.94032835  0.92957899    -0.05400
N107        N  0.50473443  0.94708159  0.91006944    -0.58100
N108        N  0.35843406  0.93852216  0.99498906    -0.03100
N109        N  0.33171312  0.95305485  0.03178502    -0.59200
Mn110      Mn  0.40028174  0.87152818  0.98866767     1.18400
C111        C  0.31124251  0.99431012  0.01675985     0.99100
C112        C  0.53508992  0.91952996  0.93557445     0.99800
N113        N  0.30717017  0.78021407  0.85372817    -0.05400
N114        N  0.27642788  0.74542493  0.84342298    -0.61700
N115        N  0.42178389  0.80163965  0.81583347    -0.04200
N116        N  0.46611502  0.79966988  0.79768483    -0.62400
N117        N  0.41759027  0.76978178  0.85050180    -0.04900
N118        N  0.45836044  0.74586791  0.85621418    -0.62000
N119        N  0.30949256  0.81051091  0.81789459    -0.03800
N120        N  0.28012726  0.79695902  0.78328574    -0.62700
Mn121      Mn  0.36639540  0.77823514  0.90832063     1.10700
C122        C  0.25900474  0.75658003  0.79958276     1.00300
C123        C  0.48803536  0.76548217  0.82398984     1.00400
N124        N  0.43762613  0.94948966  0.82570161    -0.04900
N125        N  0.46886391  0.98085602  0.80841952    -0.60300
N126        N  0.31995453  0.92412972  0.82024359    -0.04200
N127        N  0.27709971  0.93192528  0.80126272    -0.57000
N128        N  0.32960511  0.95807311  0.85108421    -0.05500
N129        N  0.29401093  0.98961464  0.85353973    -0.59800
N130        N  0.43022369  0.91522449  0.79506312    -0.04500
N131        N  0.45634477  0.92327684  0.75558910    -0.57000
Mn132      Mn  0.39560893  0.95610129  0.89220755     1.20200
Mn133      Mn  0.37017268  0.86255749  0.81007015     1.10100
Cl134      Cl  0.38254134  0.86699294  0.89955919    -0.85000
C135        C  0.48082502  0.96425209  0.76474007     0.97300
C136        C  0.26143490  0.97228046  0.82297977     0.97100
C137        C  0.34162362  0.37435729  0.84752217    -0.01500
C138        C  0.35065660  0.85479185  0.34653938    -0.01500
C139        C  0.85479590  0.37802229  0.34253450    -0.01500
N140        N  0.19322072  0.06417146  0.66013835    -0.05200
N141        N  0.21482316  0.06657363  0.70166343    -0.57300
N142        N  0.16328177  0.01291940  0.55399552    -0.04800
N143        N  0.16961094  0.97661075  0.52418950    -0.59400
N144        N  0.20122473  0.04085489  0.55227815    -0.04400
N145        N  0.23379951  0.02472379  0.52109372    -0.57300
N146        N  0.15620720  0.03512483  0.66250867    -0.04100
N147        N  0.15137727  0.01721209  0.70553270    -0.59800
C148        C  0.18757819  0.03765922  0.72938762     0.97000
C149        C  0.21380483  0.98470304  0.50374804     0.96800
N150        N  0.01238655  0.05971714  0.55235892    -0.05300
N151        N  0.96957696  0.04025782  0.56097456    -0.57900
N152        N  0.04511775  0.04297499  0.65889332    -0.03500
N153        N  0.02909335  0.01332946  0.69207699    -0.59100
N154        N  0.01476243  0.07913530  0.65391854    -0.05400
N155        N  0.97723476  0.07443107  0.68354126    -0.58100
N156        N  0.04670570  0.02579703  0.55374905    -0.03100
N157        N  0.02666676  0.98396897  0.55983739    -0.59200
Mn158      Mn  0.10370203  0.02892852  0.60628184     1.18400
C159        C  0.97980546  0.99392048  0.56725208     0.99100
C160        C  0.98712763  0.03365562  0.70768227     0.99800
N161        N  0.20826553  0.14618454  0.53077877    -0.05400
N162        N  0.23767756  0.13691164  0.49485668    -0.61700
N163        N  0.18255587  0.20924177  0.62848513    -0.04200
N164        N  0.19307002  0.24575177  0.65646381    -0.62400
N165        N  0.21111576  0.17273952  0.63813002    -0.04900
N166        N  0.24181603  0.18388075  0.67255164    -0.62000
N167        N  0.17805512  0.18135945  0.52062071    -0.03800
N168        N  0.18726239  0.19723156  0.47733661    -0.62700
Mn169      Mn  0.20527414  0.10597340  0.59596797     1.10700
C170        C  0.22406222  0.16852277  0.46163535     1.00300
C171        C  0.23007805  0.22967207  0.68392598     1.00400
N172        N  0.03297082  0.18754719  0.63629254    -0.04900
N173        N  0.02229874  0.18093961  0.68145316    -0.60300
N174        N  0.06148772  0.20476626  0.52150596    -0.04200
N175        N  0.05031025  0.23858143  0.48994639    -0.57000
N176        N  0.02432861  0.17590087  0.52732561    -0.05500
N177        N  0.98762781  0.18993775  0.49991335    -0.59800
N178        N  0.07146023  0.21511211  0.63190883    -0.04500
N179        N  0.08773385  0.22615027  0.67449172    -0.57000
Mn180      Mn  0.02094127  0.12682050  0.59074463     1.20200
Mn181      Mn  0.12338327  0.20474630  0.57400330     1.10100
Cl182      Cl  0.11311288  0.11649561  0.59082982    -0.85000
C183        C  0.05697105  0.20415738  0.70433884     0.97300
C184        C  0.00428612  0.22876687  0.47602917     0.97100
N185        N  0.04037481  0.68712660  0.16916033    -0.05200
N186        N  0.05230845  0.72833146  0.18725946    -0.57300
N187        N  0.99514386  0.58142242  0.13391204    -0.04800
N188        N  0.95937348  0.55210626  0.14671433    -0.60200
N189        N  0.03130178  0.57685495  0.16409949    -0.04400
N190        N  0.02085644  0.54464411  0.19725215    -0.57300
N191        N  0.00492827  0.69285072  0.13842286    -0.04100
N192        N  0.99205277  0.73825427  0.13555371    -0.59800
C193        C  0.02284395  0.75956001  0.16534879     0.97000
C194        C  0.97610984  0.52878578  0.18612095     0.96800
N195        N  0.02642481  0.60260463  0.98243111    -0.05300
N196        N  0.00777223  0.59413550  0.94049133    -0.57900
N197        N  0.99416887  0.70383183  0.02972321    -0.03500
N198        N  0.95919787  0.73602030  0.02339542    -0.59100
N199        N  0.02715880  0.70726462  0.99563244    -0.05400
N200        N  0.01528538  0.74180715  0.96561517    -0.58100
N201        N  0.99252223  0.59914262  0.01624193    -0.03100
N202        N  0.95061151  0.58835559  0.99700303    -0.59200
Mn203      Mn  0.99537802  0.64295849  0.08060063     1.18400
C204        C  0.96061795  0.58706824  0.95002316     0.99100
C205        C  0.97317752  0.75987833  0.98363624     0.99800
N206        N  0.14807624  0.57403101  0.15509596    -0.05400
N207        N  0.16620127  0.54920666  0.19053790    -0.61700
N208        N  0.18459030  0.68527002  0.13791209    -0.04200
N209        N  0.22062247  0.71284102  0.15185099    -0.62400
N210        N  0.15226582  0.68060609  0.17227959    -0.04900
N211        N  0.16557668  0.70503427  0.21027920    -0.62000
N212        N  0.18116116  0.57879860  0.12094854    -0.03800
N213        N  0.22187022  0.55725612  0.13293117    -0.62700
Mn214      Mn  0.09202703  0.62866753  0.16597544     1.10700
C215        C  0.21174844  0.53875757  0.17595235     1.00300
C216        C  0.20806831  0.72544246  0.19695690     1.00400
N217        N  0.13830904  0.70768654  0.99717177    -0.04900
N218        N  0.12975057  0.75296770  0.98716820    -0.60300
N219        N  0.17919685  0.59372532  0.00975963    -0.04200
N220        N  0.21200412  0.56105005  0.99724856    -0.57000
N221        N  0.14481169  0.59709703  0.97768650    -0.05500
N222        N  0.15403394  0.56650214  0.94243753    -0.59800
N223        N  0.17201110  0.70351611  0.02979988    -0.04500
N224        N  0.18651856  0.74586878  0.04294294    -0.57000
Mn225      Mn  0.08534235  0.65269172  0.98699195     1.20200
Mn226      Mn  0.18032475  0.64008934  0.07343859     1.10100
Cl227      Cl  0.08807745  0.63969038  0.07654505    -0.85000
C228        C  0.15920254  0.77598606  0.01689362     0.97300
C229        C  0.19612629  0.54403258  0.95527756     0.97100
N230        N  0.64683264  0.09934932  0.02377476    -0.05200
N231        N  0.67124693  0.09175686  0.98323394    -0.57300
N232        N  0.55054547  0.04031478  0.06262406    -0.04800
N233        N  0.55709058  0.99808551  0.04363469    -0.59400
N234        N  0.54488332  0.07302158  0.02864865    -0.04400
N235        N  0.55153152  0.05265338  0.98671167    -0.57300
N236        N  0.65628339  0.06451028  0.05391838    -0.04100
N237        N  0.68744847  0.03355515  0.03486314    -0.59800
C238        C  0.69725416  0.05102427  0.99107319     0.97000
C239        C  0.56049209  0.00682029  0.99720505     0.96800
N240        N  0.55566034  0.05516342  0.21228782    -0.05300
N241        N  0.52525645  0.03713029  0.24430459    -0.57900
N242        N  0.66677298  0.05964657  0.16343342    -0.03500
N243        N  0.71100226  0.04161733  0.16012282    -0.59100
N244        N  0.66273698  0.08826085  0.20016036    -0.05400
N245        N  0.70418576  0.09010115  0.22318593    -0.58100
N246        N  0.55838360  0.02786586  0.17456564    -0.03100
N247        N  0.53007759  0.99017977  0.18027241    -0.59200
Mn248      Mn  0.60737625  0.04819545  0.11445692     1.18400
C249        C  0.50953750  0.99653730  0.22405775     0.99100
C250        C  0.73391662  0.06146153  0.19705451     0.99800
N251        N  0.50968889  0.18571321  0.03979465    -0.05400
N252        N  0.48270125  0.19839225  0.00285380    -0.61700
N253        N  0.60884159  0.23810113  0.08136651    -0.04200
N254        N  0.64859813  0.26125490  0.09206488    -0.62400
N255        N  0.61702944  0.20970983  0.04457388    -0.04900
N256        N  0.66196262  0.21414047  0.02948402    -0.62000
N257        N  0.50103395  0.21465543  0.07601020    -0.03800
N258        N  0.46815304  0.24750750  0.06346282    -0.62700
Mn259      Mn  0.57857030  0.14293905  0.03421728     1.10700
C260        C  0.45624636  0.23650711  0.01790790     1.00300
C261        C  0.68085479  0.24598189  0.05930082     1.00400
N262        N  0.62887411  0.19402568  0.21752808    -0.04900
N263        N  0.66590178  0.20671694  0.24438665    -0.60300
N264        N  0.50611675  0.18941173  0.19023856    -0.04200
N265        N  0.45845664  0.19335116  0.19565724    -0.57000
N266        N  0.52273894  0.15642283  0.21942846    -0.05500
N267        N  0.48735634  0.13707288  0.24408935    -0.59800
N268        N  0.61428377  0.22980908  0.19078477    -0.04500
N269        N  0.64184300  0.26762709  0.19892503    -0.57000
Mn270      Mn  0.59338601  0.12406773  0.21412693     1.20200
Mn271      Mn  0.55564096  0.22007610  0.13540286     1.10100
Cl272      Cl  0.58340818  0.13391118  0.12419356    -0.85000
C273        C  0.67387773  0.25277651  0.23261108     0.97300
C274        C  0.44741176  0.15958112  0.22880755     0.97100
C275        C  0.65572812  0.61152793  0.12224967    -0.01500
C276        C  0.13528282  0.60745478  0.64734707    -0.01500
N277        N  0.30005120  0.33951064  0.42672028    -0.05200
N278        N  0.27644565  0.30171499  0.41317583    -0.57300
N279        N  0.34684679  0.43681255  0.47116864    -0.04800
N280        N  0.33620862  0.46068984  0.51092029    -0.59400
N281        N  0.31388635  0.44629554  0.43886257    -0.04400
N282        N  0.28050342  0.47632929  0.45599320    -0.57300
N283        N  0.33576041  0.32750251  0.45582275    -0.04100
N284        N  0.33726643  0.28069944  0.46117932    -0.59800
C285        C  0.30036554  0.26589487  0.43390324     0.97000
C286        C  0.29505271  0.48581807  0.50077070     0.96800
N287        N  0.49492907  0.41228265  0.41709648    -0.05300
N288        N  0.51423080  0.45180346  0.40065724    -0.57900
N289        N  0.45017151  0.31181978  0.46334822    -0.03500
N290        N  0.46094650  0.28373251  0.50006634    -0.59100
N291        N  0.48112822  0.30412773  0.42820996    -0.05400
N292        N  0.51356513  0.27094989  0.44052699    -0.58100
N293        N  0.46129388  0.42191524  0.45013408    -0.03100
N294        N  0.45706711  0.46838912  0.45527057    -0.59200
Mn295      Mn  0.39883844  0.37448326  0.46284195     1.18400
C296        C  0.48923741  0.48587589  0.42348293     0.99100
C297        C  0.50032077  0.25786112  0.48535484     0.99800
N298        N  0.31950019  0.45512676  0.32521538    -0.05400
N299        N  0.29140413  0.49191279  0.31521197    -0.61700
N300        N  0.32245439  0.34443551  0.28303698    -0.04200
N301        N  0.30796088  0.31193202  0.25243749    -0.62400
N302        N  0.29079073  0.34932789  0.31790075    -0.04900
N303        N  0.25392173  0.31992415  0.31183256    -0.62000
N304        N  0.35232989  0.44890294  0.29115044    -0.03800
N305        N  0.34733789  0.48138000  0.25788902    -0.62700
Mn306      Mn  0.30491512  0.39879529  0.37760079     1.10700
C307        C  0.30969226  0.50815975  0.27353405     1.00300
C308        C  0.26527737  0.29688119  0.27077381     1.00400
N309        N  0.45917050  0.30071246  0.31766681    -0.04900
N310        N  0.45351449  0.25510315  0.32831352    -0.60300
N311        N  0.46140408  0.41864581  0.27890217    -0.04200
N312        N  0.47569435  0.45128388  0.24782222    -0.57000
N313        N  0.49662958  0.40728310  0.30799831    -0.05500
N314        N  0.53582264  0.43261134  0.29746622    -0.59800
N315        N  0.42816774  0.31339614  0.28412492    -0.04500
N316        N  0.40238973  0.27680055  0.27116609    -0.57000
Mn317      Mn  0.48533762  0.35468762  0.36736914     1.20200
Mn318      Mn  0.39196770  0.38215720  0.28283040     1.10100
Cl319      Cl  0.39533281  0.37791454  0.37296941    -0.85000
C320        C  0.41680714  0.24172837  0.29991917     0.97300
C321        C  0.52219915  0.45995418  0.25985991     0.97100
N322        N  0.53616312  0.68659621  0.67468491    -0.05200
N323        N  0.53090717  0.68124740  0.72100242    -0.57300
N324        N  0.54514593  0.72100950  0.55751716    -0.04800
N325        N  0.53248764  0.75098897  0.52316437    -0.59400
N326        N  0.51009858  0.69095540  0.56649543    -0.04400
N327        N  0.47286702  0.69951695  0.53795995    -0.57300
N328        N  0.56829779  0.72014749  0.66537925    -0.04100
N329        N  0.58496617  0.73811654  0.70503947    -0.59800
C330        C  0.56239490  0.71280761  0.73890881     0.97000
C331        C  0.48735119  0.73702115  0.51106738     0.96800
N332        N  0.69068079  0.67369420  0.53906111    -0.05300
N333        N  0.70282476  0.65984001  0.49603523    -0.57900
N334        N  0.67621621  0.72486481  0.64497431    -0.03500
N335        N  0.68777514  0.76094173  0.67267590    -0.59100
N336        N  0.70897059  0.69064066  0.64745758    -0.05400
N337        N  0.74417194  0.70333880  0.67687883    -0.58100
N338        N  0.65644416  0.70690963  0.53742681    -0.03100
N339        N  0.64536524  0.71648122  0.49275297    -0.59200
Mn340      Mn  0.61133438  0.72045215  0.60043850     1.18400
C341        C  0.67385378  0.68572194  0.46784061     0.99100
C342        C  0.73009170  0.74735574  0.69258238     0.99800
N343        N  0.51462955  0.58275483  0.56400890    -0.05400
N344        N  0.49601493  0.59540434  0.52284966    -0.61700
N345        N  0.55189422  0.53893418  0.66840759    -0.04200
N346        N  0.53935804  0.50205219  0.69550740    -0.62400
N347        N  0.51962065  0.57357893  0.67309923    -0.04900
N348        N  0.48454284  0.56061789  0.70324265    -0.62000
N349        N  0.54952377  0.55039187  0.55797032    -0.03800
N350        N  0.55530375  0.54140475  0.51231763    -0.62700
Mn351      Mn  0.51787600  0.63365228  0.62095724     1.10700
C352        C  0.52275365  0.57061523  0.49136165     1.00300
C353        C  0.49752864  0.51611291  0.71765176     1.00400
N354        N  0.70189311  0.57606524  0.65755605    -0.04900
N355        N  0.73662951  0.56797922  0.68836097    -0.60300
N356        N  0.66460685  0.53451809  0.55212187    -0.04200
N357        N  0.67428119  0.49891352  0.52211135    -0.57000
N358        N  0.69943679  0.56608020  0.54974116    -0.05500
N359        N  0.73298702  0.55297135  0.51795310    -0.59800
N360        N  0.66801151  0.54315285  0.66088368    -0.04500
N361        N  0.67889627  0.51226991  0.69441612    -0.57000
Mn362      Mn  0.70210086  0.62735567  0.59936127     1.20200
Mn363      Mn  0.60792864  0.53979349  0.61003658     1.10100
Cl364      Cl  0.60989102  0.63005254  0.60827635    -0.85000
C365        C  0.72107256  0.52885520  0.71139484     0.97300
C366        C  0.71691419  0.51116168  0.50054346     0.97100
C367        C  0.63282596  0.10348247  0.62765792    -0.01500
C368        C  0.15067669  0.11814256  0.15731494    -0.01500
C369        C  0.17677049  0.15408374  0.18564300    -0.17500
C370        C  0.19612149  0.18583008  0.20759861     0.06500
C371        C  0.21816448  0.22454540  0.23178222     0.08400
C372        C  0.23803705  0.25785306  0.25074346    -0.18400
C373        C  0.52852226  0.22480457  0.51601100    -0.17500
C374        C  0.55233908  0.19796011  0.54188964     0.06500
C375        C  0.58040841  0.16625887  0.57252978     0.08400
C376        C  0.60401700  0.13884483  0.59804369    -0.18400
C377        C  0.49880849  0.53475467  0.41873102    -0.12300
C378        C  0.51096111  0.56656929  0.44308112    -0.13900
C379        C  0.17344572  0.58100689  0.61862496    -0.17500
C380        C  0.20333598  0.55941719  0.59370345     0.06500
C381        C  0.23744975  0.53412687  0.56294424     0.08400
C382        C  0.26506842  0.51258633  0.53563567    -0.18400
C383        C  0.62850954  0.58116092  0.15697917    -0.17500
C384        C  0.60551563  0.55452428  0.18307127     0.06500
C385        C  0.57778214  0.52199295  0.21180815     0.08400
C386        C  0.55335564  0.49379742  0.23472966    -0.18400
C387        C  0.40858291  0.16567938  0.26145846    -0.12300
C388        C  0.40175020  0.19457158  0.29166684    -0.13900
C389        C  0.27839034  0.52824814  0.23976584    -0.12300
C390        C  0.24879356  0.53246409  0.20951344    -0.13900
C391        C  0.25965105  0.18643773  0.43053530    -0.12300
C392        C  0.28723536  0.21830945  0.42592491    -0.13900
C393        C  0.81822739  0.34926275  0.31551208    -0.17500
C394        C  0.78590730  0.32785507  0.29480557     0.06500
C395        C  0.74658895  0.30324243  0.27156375     0.08400
C396        C  0.71315816  0.28156974  0.25295992    -0.18400
C397        C  0.94801840  0.49533456  0.21678088    -0.17500
C398        C  0.92699369  0.46819102  0.24482460     0.06500
C399        C  0.90297035  0.43652254  0.27899468     0.08400
C400        C  0.88223971  0.41001053  0.30787861    -0.18400
C401        C  0.88949202  0.34504573  0.36930523    -0.17500
C402        C  0.91654648  0.31830262  0.39247506     0.06500
C403        C  0.94785896  0.28674796  0.42070160     0.08400
C404        C  0.97386127  0.26022061  0.44518142    -0.18400
C405        C  0.82659042  0.40818542  0.37780549    -0.17500
C406        C  0.80117270  0.43137276  0.40583761     0.06500
C407        C  0.77034418  0.45823212  0.43853360     0.08400
C408        C  0.74483908  0.48149152  0.46639687    -0.18400
C409        C  0.32085290  0.82470386  0.31422355    -0.17500
C410        C  0.29538706  0.80165800  0.28743065     0.06500
C411        C  0.26483955  0.77537268  0.25569461     0.08400
C412        C  0.23885397  0.75305913  0.22879200    -0.18400
C413        C  0.38324399  0.88613431  0.31752185    -0.17500
C414        C  0.41118480  0.91085597  0.29428462     0.06500
C415        C  0.44504672  0.93968337  0.26784571     0.08400
C416        C  0.47432394  0.96469758  0.24668567    -0.18400
C417        C  0.31759169  0.88424732  0.37727244    -0.17500
C418        C  0.29125306  0.90638142  0.40484904     0.06500
C419        C  0.26145055  0.93183071  0.43873563     0.08400
C420        C  0.23791163  0.95451216  0.46816491    -0.18400
C421        C  0.38104234  0.82445611  0.37851383    -0.17500
C422        C  0.40561634  0.80265186  0.40742445     0.06500
C423        C  0.43409010  0.77892521  0.44307528     0.08400
C424        C  0.45819403  0.75956343  0.47395307    -0.18400
C425        C  0.25423378  0.25847482  0.72064154    -0.17500
C426        C  0.27366293  0.28384527  0.75049383     0.06500
C427        C  0.29648593  0.31479633  0.78495255     0.08400
C428        C  0.31622354  0.34146000  0.81348916    -0.18400
C429        C  0.22229707  0.50677887  0.92791652    -0.17500
C430        C  0.24708008  0.47567878  0.90826981     0.06500
C431        C  0.27806371  0.43924919  0.88689937     0.08400
C432        C  0.30558377  0.40909894  0.86928084    -0.18400
C433        C  0.36545050  0.34528786  0.88656428    -0.17500
C434        C  0.38436214  0.32123015  0.91836070     0.06500
C435        C  0.40718959  0.29242480  0.95531771     0.08400
C436        C  0.42792557  0.26751382  0.98530015    -0.18400
C437        C  0.37915802  0.40267185  0.82035678    -0.17500
C438        C  0.40769777  0.42774574  0.79771568     0.06500
C439        C  0.44002240  0.45842140  0.77066270     0.08400
C440        C  0.46664383  0.48473532  0.74721653    -0.18400
C441        C  0.17076388  0.82467809  0.01325605    -0.12300
C442        C  0.20756623  0.84557341  0.00736970    -0.13900
C443        C  0.22358147  0.00053830  0.80434806    -0.12300
C444        C  0.20170279  0.02202002  0.77489621    -0.13900
C445        C  0.22923326  0.72470732  0.76965700    -0.17500
C446        C  0.20637971  0.69844844  0.74284746     0.06500
C447        C  0.18062364  0.66741896  0.71011478     0.08400
C448        C  0.15965016  0.64091435  0.68203631    -0.18400
C449        C  0.27711315  0.02256049  0.04542734    -0.17500
C450        C  0.24845581  0.04433082  0.07093369     0.06500
C451        C  0.21473947  0.06915480  0.10156517     0.08400
C452        C  0.18601422  0.09058753  0.12732328    -0.18400
C453        C  0.53463831  0.74720684  0.81408327    -0.12300
C454        C  0.56042249  0.72766592  0.78635543    -0.13900
C455        C  0.52267640  0.71432417  0.02569786    -0.17500
C456        C  0.55344156  0.69084048  0.04678618     0.06500
C457        C  0.58958990  0.66407766  0.07266423     0.08400
C458        C  0.61988474  0.64111085  0.09495293    -0.18400
C459        C  0.59839852  0.07321594  0.65671217    -0.17500
C460        C  0.57114286  0.04702970  0.67965708     0.06500
C461        C  0.53949104  0.01578091  0.70689607     0.08400
C462        C  0.51280297  0.99041479  0.73135660    -0.18400
C463        C  0.58118520  0.93827776  0.94452847    -0.12300
C464        C  0.58486823  0.97420424  0.96640878    -0.13900
C465        C  0.05175126  0.19412705  0.79289613    -0.12300
C466        C  0.06595383  0.19495596  0.75286676    -0.13900
C467        C  0.73114727  0.24516307  0.06691071    -0.12300
C468        C  0.77188185  0.23858873  0.05419316    -0.13900
C469        C  0.66722563  0.12935716  0.66071955    -0.17500
C470        C  0.69474770  0.14990337  0.68840906     0.06500
C471        C  0.72707324  0.17402778  0.72150296     0.08400
C472        C  0.75434726  0.19473350  0.74929081    -0.18400
C473        C  0.04376132  0.22831410  0.04330534    -0.17500
C474        C  0.06555164  0.20065534  0.06900689     0.06500
C475        C  0.09197985  0.16917876  0.09960774     0.08400
C476        C  0.11651846  0.14426927  0.12575283    -0.18400
C477        C  0.75142866  0.50098905  0.74040086    -0.12300
C478        C  0.77443108  0.47100164  0.76009255    -0.13900
C479        C  0.74583615  0.48470131  0.00704474    -0.17500
C480        C  0.72495243  0.51529317  0.03087668     0.06500
C481        C  0.70225659  0.55045505  0.06145401     0.08400
C482        C  0.68260271  0.57914055  0.08847045    -0.18400
C483        C  0.10457196  0.57181299  0.67396736    -0.17500
C484        C  0.07905253  0.54190922  0.69390624     0.06500
C485        C  0.04955026  0.50585103  0.71689183     0.08400
C486        C  0.02626307  0.47471187  0.73749097    -0.18400
C487        C  0.92485915  0.52460607  0.90703906    -0.12300
C488        C  0.93036620  0.56492503  0.91717311    -0.13900
C489        C  0.80796567  0.01863552  0.23372323    -0.12300
C490        C  0.77876769  0.04316366  0.21387768    -0.13900
C491        C  0.01665735  0.82673354  0.21791790    -0.12300
C492        C  0.01967520  0.80729222  0.18053132    -0.13900
C493        C  0.69042007  0.64327418  0.14827074    -0.17500
C494        C  0.71786853  0.66956735  0.17005681     0.06500
C495        C  0.74957913  0.70083735  0.19623555     0.08400
C496        C  0.77579386  0.72733215  0.21917566    -0.18400
C497        C  0.12391969  0.08566382  0.19034935    -0.17500
C498        C  0.10305875  0.06010373  0.21910438     0.06500
C499        C  0.07851758  0.03105574  0.25379490     0.08400
C500        C  0.05648052  0.00732594  0.28324096    -0.18400
C501        C  0.72108669  0.70721786  0.39920173    -0.12300
C502        C  0.68698410  0.69174009  0.41989703    -0.13900
C503        C  0.02003638  0.69994158  0.52091004    -0.17500
C504        C  0.04509114  0.67813554  0.54996698     0.06500
C505        C  0.07632435  0.65472944  0.58448606     0.08400
C506        C  0.10304186  0.63472821  0.61340599    -0.18400
C507        C  0.72922536  0.98619747  0.50513628    -0.17500
C508        C  0.70636488  0.01159007  0.53335372     0.06500
C509        C  0.68184895  0.04357917  0.56654737     0.08400
C510        C  0.66096874  0.07096174  0.59438403    -0.18400
C511        C  0.94825393  0.95992186  0.58857014    -0.12300
C512        C  0.92929589  0.92302151  0.58013166    -0.13900
C513        C  0.79813400  0.93596168  0.87382144    -0.17500
C514        C  0.77329720  0.96363852  0.89780132     0.06500
C515        C  0.74635211  0.99671815  0.92760952     0.08400
C516        C  0.72419866  0.02352084  0.95479542    -0.18400
C517        C  0.86579916  0.93518856  0.81748530    -0.17500
C518        C  0.89298048  0.95974922  0.79358443     0.06500
C519        C  0.92529796  0.98766788  0.76499828     0.08400
C520        C  0.95320009  0.01001304  0.73976782    -0.18400
C521        C  0.80784149  0.87068609  0.81410135    -0.17500
C522        C  0.79133928  0.84119310  0.78672388     0.06500
C523        C  0.77314578  0.80609197  0.75417493     0.08400
C524        C  0.75600751  0.77742849  0.72634637    -0.18400
C525        C  0.86302561  0.87641999  0.88042739    -0.17500
C526        C  0.88809038  0.85210215  0.90670807     0.06500
C527        C  0.91780725  0.82203461  0.93588845     0.08400
C528        C  0.94310976  0.79484707  0.95896699    -0.18400
loop_ 
_geom_bond_atom_site_label_1 
_geom_bond_atom_site_label_2 
_geom_bond_distance 
_geom_bond_site_symmetry_2 
_ccdc_geom_bond_type 
C1          C513   1.501       .  S
C1          C517   1.487       .  S
C1          C521   1.500       .  S
C1          C525   1.488       .  S
N2            N3   1.335       .  A
N2            N8   1.312       .  A
N2          Mn31   2.270       .  S
N3           C10   1.368       .  A
N4            N6   1.316       .  A
N4            N5   1.316       .  A
N4          Mn20   2.163       .  S
N5           C11   1.347       .  A
N6            N7   1.316       .  A
N6          Mn31   2.209       .  S
N7           C11   1.351       .  A
N8            N9   1.322       .  A
N8          Mn20   2.186       .  S
N9           C10   1.348       .  A
C10         C507   1.475       .  S
C11         C489   1.417   1_565  S
N12          N18   1.310   1_455  A
N12          N13   1.328       .  A
N12         Mn42   2.227   1_455  S
N13          C21   1.357       .  A
N14          N15   1.310       .  A
N14          N16   1.315       .  A
N14         Mn20   2.151       .  S
N15          C22   1.342       .  A
N16          N17   1.322       .  A
N16         Mn42   2.177       .  S
N17          C22   1.354       .  A
N18          N19   1.324       .  A
N18         Mn20   2.195       .  S
N19          C21   1.352   1_655  A
Mn20        Cl44   2.540       .  S
C21         C500   1.461   1_565  S
C22         C512   1.408       .  S
N23          N24   1.330       .  A
N23          N29   1.321       .  A
N23         Mn31   2.242       .  S
N24          C32   1.356       .  A
N25          N27   1.331       .  A
N25          N26   1.322       .  A
N25         Mn43   2.206       .  S
N26          C33   1.347       .  A
N27          N28   1.310       .  A
N27         Mn31   2.168       .  S
N28          C33   1.332       .  A
N29          N30   1.330       .  A
N29         Mn43   2.241       .  S
N30          C32   1.356       .  A
Mn31        Cl44   2.530       .  S
C32         C496   1.477       .  S
C33         C501   1.407       .  S
N34          N35   1.324   1_655  A
N34          N40   1.315       .  A
N34         Mn42   2.198       .  S
N35          C45   1.348   1_455  A
N36          N37   1.313       .  A
N36          N38   1.323   1_655  A
N36         Mn43   2.205       .  S
N37          C46   1.344   1_655  A
N38          N39   1.319       .  A
N38         Mn42   2.156   1_455  S
N39          C46   1.338       .  A
N40          N41   1.336       .  A
N40         Mn43   2.282       .  S
N41          C45   1.367       .  A
Mn42        Cl44   2.560       .  S
Mn43        Cl44   2.546       .  S
C45         C503   1.479   1_655  S
C46         C491   1.412       .  S
N47          N48   1.319       .  A
N47          N53   1.322       .  A
N47         Mn76   2.164       .  S
N48          C55   1.337       .  A
N49          N51   1.308       .  A
N49          N50   1.324   1_556  A
N49         Mn65   2.190       .  S
N50          C56   1.352   1_655  A
N51          N52   1.326   1_655  A
N51         Mn76   2.208       .  S
N52          C56   1.355   1_556  A
N53          N54   1.315       .  A
N53         Mn65   2.160       .  S
N54          C55   1.334       .  A
C55         C487   1.406       .  S
C56         C473   1.454       .  S
N57          N63   1.319       .  A
N57          N58   1.313       .  A
N57         Mn87   2.219       .  S
N58          C66   1.354   1_556  A
N59          N60   1.323       .  A
N59          N61   1.313       .  A
N59         Mn65   2.196       .  S
N60          C67   1.348       .  A
N61          N62   1.332       .  A
N61         Mn87   2.254       .  S
N62          C67   1.362       .  A
N63          N64   1.311   1_556  A
N63         Mn65   2.142       .  S
N64          C66   1.338       .  A
Mn65        Cl89   2.538       .  S
C66         C468   1.399       .  S
C67         C479   1.467   1_556  S
N68          N69   1.313   1_655  A
N68          N74   1.317       .  A
N68         Mn76   2.143       .  S
N69          C77   1.342       .  A
N70          N72   1.313       .  A
N70          N71   1.334       .  A
N70         Mn88   2.261       .  S
N71          C78   1.364   1_655  A
N72          N73   1.325   1_655  A
N72         Mn76   2.202       .  S
N73          C78   1.350       .  A
N74          N75   1.313       .  A
N74         Mn88   2.221       .  S
N75          C77   1.356   1_655  A
Mn76        Cl89   2.550       .  S
C77         C465   1.402       .  S
C78         C486   1.475       .  S
N79          N80   1.312       .  A
N79          N85   1.320       .  A
N79         Mn87   2.178       .  S
N80          C90   1.343       .  A
N81          N82   1.332       .  A
N81          N83   1.320       .  A
N81         Mn88   2.252       .  S
N82          C91   1.358       .  A
N83          N84   1.334       .  A
N83         Mn87   2.257       .  S
N84          C91   1.360       .  A
N85          N86   1.316       .  A
N85         Mn88   2.188       .  S
N86          C90   1.348       .  A
Mn87        Cl89   2.547       .  S
Mn88        Cl89   2.541       .  S
C90         C478   1.404       .  S
C91         C472   1.492       .  S
N92          N93   1.330       .  A
N92          N98   1.311       .  A
N92        Mn121   2.246       .  S
N93         C100   1.359   1_556  A
N94          N96   1.325       .  A
N94          N95   1.318   1_556  A
N94        Mn110   2.169       .  S
N95         C101   1.337   1_554  A
N96          N97   1.315       .  A
N96        Mn121   2.204       .  S
N97         C101   1.347       .  A
N98          N99   1.325   1_556  A
N98        Mn110   2.189       .  S
N99         C100   1.352       .  A
C100        C455   1.467       .  S
C101        C442   1.412   1_556  S
N102        N108   1.310       .  A
N102        N103   1.328   1_565  A
N102       Mn132   2.216       .  S
N103        C111   1.357   1_546  A
N104        N105   1.320       .  A
N104        N106   1.316       .  A
N104       Mn110   2.182       .  S
N105        C112   1.354       .  A
N106        N107   1.311       .  A
N106       Mn132   2.154       .  S
N107        C112   1.343       .  A
N108        N109   1.324   1_556  A
N108       Mn110   2.200       .  S
N109        C111   1.351       .  A
Mn110      Cl134   2.559       .  S
C111        C449   1.459   1_565  S
C112        C463   1.404       .  S
N113        N114   1.333       .  A
N113        N119   1.317       .  A
N113       Mn121   2.250       .  S
N114        C122   1.361       .  A
N115        N117   1.325       .  A
N115        N116   1.317       .  A
N115       Mn133   2.217       .  S
N116        C123   1.351       .  A
N117        N118   1.312       .  A
N117       Mn121   2.149       .  S
N118        C123   1.334       .  A
N119        N120   1.330       .  A
N119       Mn133   2.239       .  S
N120        C122   1.356       .  A
Mn121      Cl134   2.546       .  S
C122        C445   1.488       .  S
C123        C453   1.401       .  S
N124        N125   1.325       .  A
N124        N130   1.311       .  A
N124       Mn132   2.193       .  S
N125        C135   1.349       .  A
N126        N127   1.315       .  A
N126        N128   1.320       .  A
N126       Mn133   2.217       .  S
N127        C136   1.352       .  A
N128        N129   1.314       .  A
N128       Mn132   2.163       .  S
N129        C136   1.344       .  A
N130        N131   1.335       .  A
N130       Mn133   2.264       .  S
N131        C135   1.366       .  A
Mn132      Cl134   2.538       .  S
Mn133      Cl134   2.544       .  S
C135        C462   1.478       .  S
C136        C443   1.407   1_565  S
C137        C428   1.513       .  S
C137        C432   1.508       .  S
C137        C433   1.516       .  S
C137        C437   1.509       .  S
C138        C409   1.499       .  S
C138        C413   1.496       .  S
C138        C417   1.492       .  S
C138        C421   1.492       .  S
C139        C393   1.509       .  S
C139        C400   1.522       .  S
C139        C401   1.525       .  S
C139        C405   1.507       .  S
N140        N141   1.317       .  A
N140        N146   1.313       .  A
N140       Mn169   2.173       .  S
N141        C148   1.351       .  A
N142        N144   1.313       .  A
N142        N143   1.329   1_545  A
N142       Mn158   2.231       .  S
N143        C149   1.360       .  A
N144        N145   1.323       .  A
N144       Mn169   2.209       .  S
N145        C149   1.351   1_545  A
N146        N147   1.314       .  A
N146       Mn158   2.161       .  S
N147        C148   1.342       .  A
C148        C444   1.408       .  S
C149        C420   1.461       .  S
N150        N156   1.334       .  A
N150        N151   1.323   1_455  A
N150       Mn180   2.189       .  S
N151        C159   1.339   1_545  A
N152        N153   1.323       .  A
N152        N154   1.315       .  A
N152       Mn158   2.207       .  S
N153        C160   1.351   1_455  A
N154        N155   1.326   1_455  A
N154       Mn180   2.226       .  S
N155        C160   1.355       .  A
N156        N157   1.313   1_545  A
N156       Mn158   2.168       .  S
N157        C159   1.330   1_455  A
Mn158      Cl182   2.511       .  S
C159        C511   1.424       .  S
C160        C520   1.454       .  S
N161        N162   1.311       .  A
N161        N167   1.316       .  A
N161       Mn169   2.150       .  S
N162        C170   1.340       .  A
N163        N165   1.314       .  A
N163        N164   1.329       .  A
N163       Mn181   2.252       .  S
N164        C171   1.357       .  A
N165        N166   1.331       .  A
N165       Mn169   2.228       .  S
N166        C171   1.360       .  A
N167        N168   1.317       .  A
N167       Mn181   2.208       .  S
N168        C170   1.357       .  A
Mn169      Cl182   2.555       .  S
C170        C391   1.401       .  S
C171        C425   1.480       .  S
N172        N173   1.312       .  A
N172        N178   1.323       .  A
N172       Mn180   2.164       .  S
N173        C183   1.333       .  A
N174        N175   1.333       .  A
N174        N176   1.320       .  A
N174       Mn181   2.265       .  S
N175        C184   1.361       .  A
N176        N177   1.332   1_455  A
N176       Mn180   2.251       .  S
N177        C184   1.360   1_655  A
N178        N179   1.321       .  A
N178       Mn181   2.170       .  S
N179        C183   1.339       .  A
Mn180      Cl182   2.549       .  S
Mn181      Cl182   2.539       .  S
C183        C466   1.411       .  S
C184        C404   1.492   1_455  S
N185        N186   1.311       .  A
N185        N191   1.318       .  A
N185       Mn214   2.160       .  S
N186        C193   1.340       .  A
N187        N189   1.319   1_655  A
N187        N188   1.335       .  A
N187       Mn203   2.283       .  S
N188        C194   1.366       .  A
N189        N190   1.328       .  A
N189       Mn214   2.228       .  S
N190        C194   1.354   1_455  A
N191        N192   1.321   1_455  A
N191       Mn203   2.167   1_455  S
N192        C193   1.344   1_655  A
C193        C492   1.408       .  S
C194        C397   1.489       .  S
N195        N201   1.328   1_456  A
N195        N196   1.314       .  A
N195       Mn225   2.162       .  S
N196        C204   1.338   1_455  A
N197        N198   1.325       .  A
N197        N199   1.316   1_654  A
N197       Mn203   2.225       .  S
N198        C205   1.355   1_554  A
N199        N200   1.324       .  A
N199       Mn225   2.215       .  S
N200        C205   1.353   1_455  A
N201        N202   1.317   1_554  A
N201       Mn203   2.192       .  S
N202        C204   1.345       .  A
Mn203      Cl227   2.552   1_655  S
C204        C488   1.401       .  S
C205        C528   1.456       .  S
N206        N207   1.313       .  A
N206        N212   1.322       .  A
N206       Mn214   2.182       .  S
N207        C215   1.343       .  A
N208        N210   1.312       .  A
N208        N209   1.327       .  A
N208       Mn226   2.218       .  S
N209        C216   1.356       .  A
N210        N211   1.327       .  A
N210       Mn214   2.228       .  S
N211        C216   1.356       .  A
N212        N213   1.314       .  A
N212       Mn226   2.175       .  S
N213        C215   1.342       .  A
Mn214      Cl227   2.534       .  S
C215        C390   1.405       .  S
C216        C412   1.467       .  S
N217        N218   1.320       .  A
N217        N223   1.315   1_556  A
N217       Mn225   2.156       .  S
N218        C228   1.342   1_556  A
N219        N220   1.325   1_554  A
N219        N221   1.316   1_554  A
N219       Mn226   2.215       .  S
N220        C229   1.352       .  A
N221        N222   1.333       .  A
N221       Mn225   2.262       .  S
N222        C229   1.364       .  A
N223        N224   1.313       .  A
N223       Mn226   2.170       .  S
N224        C228   1.345       .  A
Mn225      Cl227   2.543   1_556  S
Mn226      Cl227   2.538       .  S
C228        C441   1.410       .  S
C229        C429   1.475       .  S
N230        N231   1.332   1_554  A
N230        N236   1.318       .  A
N230       Mn259   2.247       .  S
N231        C238   1.361       .  A
N232        N234   1.332       .  A
N232        N233   1.311   1_545  A
N232       Mn248   2.162       .  S
N233        C239   1.329   1_564  A
N234        N235   1.321   1_554  A
N234       Mn259   2.186       .  S
N235        C239   1.340       .  A
N236        N237   1.324       .  A
N236       Mn248   2.207       .  S
N237        C238   1.349   1_554  A
C238        C516   1.469       .  S
C239        C464   1.419   1_545  S
N240        N246   1.310       .  A
N240        N241   1.325       .  A
N240       Mn270   2.206       .  S
N241        C249   1.352   1_545  A
N242        N243   1.315       .  A
N242        N244   1.312       .  A
N242       Mn248   2.175       .  S
N243        C250   1.345       .  A
N244        N245   1.319       .  A
N244       Mn270   2.178       .  S
N245        C250   1.352       .  A
N246        N247   1.329   1_545  A
N246       Mn248   2.226       .  S
N247        C249   1.359       .  A
Mn248      Cl272   2.502       .  S
C249        C416   1.464       .  S
C250        C490   1.417       .  S
N251        N252   1.328       .  A
N251        N257   1.321       .  A
N251       Mn259   2.236       .  S
N252        C260   1.353       .  A
N253        N255   1.322       .  A
N253        N254   1.316       .  A
N253       Mn271   2.160       .  S
N254        C261   1.339       .  A
N255        N256   1.309       .  A
N255       Mn259   2.184       .  S
N256        C261   1.340       .  A
N257        N258   1.334       .  A
N257       Mn271   2.264       .  S
N258        C260   1.362       .  A
Mn259      Cl272   2.544       .  S
C260        C436   1.483   1_554  S
C261        C467   1.402       .  S
N262        N263   1.327       .  A
N262        N268   1.315       .  A
N262       Mn270   2.205       .  S
N263        C273   1.353       .  A
N264        N265   1.322       .  A
N264        N266   1.317       .  A
N264       Mn271   2.223       .  S
N265        C274   1.361       .  A
N266        N267   1.310       .  A
N266       Mn270   2.140       .  S
N267        C274   1.336       .  A
N268        N269   1.333       .  A
N268       Mn271   2.273       .  S
N269        C273   1.362       .  A
Mn270      Cl272   2.558       .  S
Mn271      Cl272   2.547       .  S
C273        C396   1.478       .  S
C274        C387   1.409       .  S
C275        C383   1.494       .  S
C275        C458   1.498       .  S
C275        C482   1.499       .  S
C275        C493   1.509       .  S
C276        C379   1.507       .  S
C276        C448   1.521       .  S
C276        C483   1.508       .  S
C276        C506   1.511       .  S
N277        N278   1.310       .  A
N277        N283   1.325       .  A
N277       Mn306   2.163       .  S
N278        C285   1.332       .  A
N279        N281   1.315       .  A
N279        N280   1.332       .  A
N279       Mn295   2.258       .  S
N280        C286   1.360       .  A
N281        N282   1.327       .  A
N281       Mn306   2.197       .  S
N282        C286   1.352       .  A
N283        N284   1.322       .  A
N283       Mn295   2.202       .  S
N284        C285   1.349       .  A
C285        C392   1.407       .  S
C286        C382   1.475       .  S
N287        N293   1.329       .  A
N287        N288   1.316       .  A
N287       Mn317   2.159       .  S
N288        C296   1.333       .  A
N289        N290   1.331       .  A
N289        N291   1.313       .  A
N289       Mn295   2.243       .  S
N290        C297   1.358       .  A
N291        N292   1.330       .  A
N291       Mn317   2.221       .  S
N292        C297   1.358       .  A
N293        N294   1.316       .  A
N293       Mn295   2.211       .  S
N294        C296   1.346       .  A
Mn295      Cl319   2.529       .  S
C296        C377   1.406       .  S
C297        C373   1.483       .  S
N298        N299   1.315       .  A
N298        N304   1.319       .  A
N298       Mn306   2.194       .  S
N299        C307   1.349       .  A
N300        N302   1.310       .  A
N300        N301   1.323       .  A
N300       Mn318   2.196       .  S
N301        C308   1.349       .  A
N302        N303   1.327       .  A
N302       Mn306   2.220       .  S
N303        C308   1.355       .  A
N304        N305   1.311       .  A
N304       Mn318   2.169       .  S
N305        C307   1.343       .  A
Mn306      Cl319   2.551       .  S
C307        C389   1.401       .  S
C308        C372   1.452       .  S
N309        N310   1.324       .  A
N309        N315   1.323       .  A
N309       Mn317   2.196       .  S
N310        C320   1.351       .  A
N311        N312   1.324       .  A
N311        N313   1.311       .  A
N311       Mn318   2.179       .  S
N312        C321   1.352       .  A
N313        N314   1.328       .  A
N313       Mn317   2.246       .  S
N314        C321   1.358       .  A
N315        N316   1.309       .  A
N315       Mn318   2.162       .  S
N316        C320   1.332       .  A
Mn317      Cl319   2.557       .  S
Mn318      Cl319   2.537       .  S
C320        C388   1.412       .  S
C321        C386   1.462       .  S
N322        N323   1.316       .  A
N322        N328   1.322       .  A
N322       Mn351   2.187       .  S
N323        C330   1.348       .  A
N324        N326   1.310       .  A
N324        N325   1.326       .  A
N324       Mn340   2.195       .  S
N325        C331   1.354       .  A
N326        N327   1.327       .  A
N326       Mn351   2.227       .  S
N327        C331   1.355       .  A
N328        N329   1.313       .  A
N328       Mn340   2.163       .  S
N329        C330   1.337       .  A
C330        C454   1.398       .  S
C331        C424   1.461       .  S
N332        N338   1.319       .  A
N332        N333   1.309       .  A
N332       Mn362   2.157       .  S
N333        C341   1.337       .  A
N334        N335   1.322       .  A
N334        N336   1.312       .  A
N334       Mn340   2.196       .  S
N335        C342   1.348       .  A
N336        N337   1.332       .  A
N336       Mn362   2.245       .  S
N337        C342   1.364       .  A
N338        N339   1.321       .  A
N338       Mn340   2.182       .  S
N339        C341   1.351       .  A
Mn340      Cl364   2.547       .  S
C341        C502   1.401       .  S
C342        C524   1.467       .  S
N343        N344   1.316       .  A
N343        N349   1.324       .  A
N343       Mn351   2.151       .  S
N344        C352   1.336       .  A
N345        N347   1.315       .  A
N345        N346   1.330       .  A
N345       Mn363   2.238       .  S
N346        C353   1.357       .  A
N347        N348   1.330       .  A
N347       Mn351   2.231       .  S
N348        C353   1.357       .  A
N349        N350   1.315       .  A
N349       Mn363   2.202       .  S
N350        C352   1.347       .  A
Mn351      Cl364   2.553       .  S
C352        C378   1.403       .  S
C353        C440   1.478       .  S
N354        N355   1.314       .  A
N354        N360   1.322       .  A
N354       Mn362   2.175       .  S
N355        C365   1.345       .  A
N356        N357   1.332       .  A
N356        N358   1.313       .  A
N356       Mn363   2.245       .  S
N357        C366   1.361       .  A
N358        N359   1.327       .  A
N358       Mn362   2.219       .  S
N359        C366   1.353       .  A
N360        N361   1.313       .  A
N360       Mn363   2.200       .  S
N361        C365   1.348       .  A
Mn362      Cl364   2.546       .  S
Mn363      Cl364   2.535       .  S
C365        C477   1.404       .  S
C366        C408   1.475       .  S
C367        C376   1.516       .  S
C367        C459   1.511       .  S
C367        C469   1.524       .  S
C367        C510   1.509       .  S
C368        C369   1.483       .  S
C368        C452   1.490       .  S
C368        C476   1.486       .  S
C368        C497   1.493       .  S
C369        C370   1.216       .  T
C370        C371   1.428       .  S
C371        C372   1.215       .  T
C373        C374   1.234       .  T
C374        C375   1.458       .  S
C375        C376   1.235       .  T
C377        C378   1.180       .  T
C379        C380   1.229       .  T
C380        C381   1.449       .  S
C381        C382   1.229       .  T
C383        C384   1.222       .  T
C384        C385   1.437       .  S
C385        C386   1.221       .  T
C387        C388   1.187       .  T
C389        C390   1.188       .  T
C391        C392   1.185       .  T
C393        C394   1.231       .  T
C394        C395   1.452       .  S
C395        C396   1.230       .  T
C397        C398   1.238       .  T
C398        C399   1.464       .  S
C399        C400   1.238       .  T
C401        C402   1.240       .  T
C402        C403   1.466       .  S
C403        C404   1.239       .  T
C405        C406   1.230       .  T
C406        C407   1.450       .  S
C407        C408   1.229       .  T
C409        C410   1.225       .  T
C410        C411   1.442       .  S
C411        C412   1.224       .  T
C413        C414   1.223       .  T
C414        C415   1.439       .  S
C415        C416   1.223       .  T
C417        C418   1.221       .  T
C418        C419   1.436       .  S
C419        C420   1.220       .  T
C421        C422   1.221       .  T
C422        C423   1.436       .  S
C423        C424   1.221       .  T
C425        C426   1.232       .  T
C426        C427   1.455       .  S
C427        C428   1.233       .  T
C429        C430   1.230       .  T
C430        C431   1.451       .  S
C431        C432   1.230       .  T
C433        C434   1.234       .  T
C434        C435   1.458       .  S
C435        C436   1.234       .  T
C437        C438   1.231       .  T
C438        C439   1.452       .  S
C439        C440   1.231       .  T
C441        C442   1.185       .  T
C443        C444   1.188       .  T
C445        C446   1.237       .  T
C446        C447   1.462       .  S
C447        C448   1.237       .  T
C449        C450   1.219       .  T
C450        C451   1.434       .  S
C451        C452   1.220       .  T
C453        C454   1.180       .  T
C455        C456   1.224       .  T
C456        C457   1.442       .  S
C457        C458   1.225       .  T
C459        C460   1.232       .  T
C460        C461   1.453       .  S
C461        C462   1.231   1_545  T
C463        C464   1.188       .  T
C465        C466   1.186       .  T
C467        C468   1.185       .  T
C469        C470   1.239       .  T
C470        C471   1.466       .  S
C471        C472   1.239       .  T
C473        C474   1.216       .  T
C474        C475   1.430       .  S
C475        C476   1.217       .  T
C477        C478   1.187       .  T
C479        C480   1.224       .  T
C480        C481   1.442       .  S
C481        C482   1.225       .  T
C483        C484   1.230       .  T
C484        C485   1.450       .  S
C485        C486   1.229       .  T
C487        C488   1.179       .  T
C489        C490   1.194       .  T
C491        C492   1.186       .  T
C493        C494   1.231       .  T
C494        C495   1.452       .  S
C495        C496   1.230       .  T
C497        C498   1.222       .  T
C498        C499   1.436       .  S
C499        C500   1.221       .  T
C501        C502   1.184       .  T
C503        C504   1.231       .  T
C504        C505   1.454       .  S
C505        C506   1.232       .  T
C507        C508   1.230   1_565  T
C508        C509   1.451       .  S
C509        C510   1.231       .  T
C511        C512   1.190       .  T
C513        C514   1.227       .  T
C514        C515   1.445       .  S
C515        C516   1.226   1_565  T
C517        C518   1.218       .  T
C518        C519   1.430       .  S
C519        C520   1.217   1_565  T
C521        C522   1.226       .  T
C522        C523   1.443       .  S
C523        C524   1.225       .  T
C525        C526   1.218       .  T
C526        C527   1.431       .  S
C527        C528   1.218       .  T
