geometry optimzed in LAMMPS
_audit_creation_date              2020-11-30 
_audit_creation_method            'lammps2cif' 
_symmetry_space_group_name_H-M    'P1' 
_symmetry_Int_Tables_number       1 
_symmetry_cell_setting            triclinic 
loop_ 
_symmetry_equiv_pos_as_xyz 
  x,y,z 
_cell_length_a                    40.69305952 
_cell_length_b                    40.620124785371644 
_cell_length_c                    62.756994601933556 
_cell_angle_alpha                 90.03605923419742 
_cell_angle_beta                  89.85831432022046 
_cell_angle_gamma                 123.28332576630778 
loop_ 
_atom_site_label 
_atom_site_type_symbol 
_atom_site_fract_x 
_atom_site_fract_y 
_atom_site_fract_z 
_atom_site_charge 
In1        In  0.99200976  0.76425619  0.10395075     1.36900
C2          C  0.98773306  0.73828889  0.06439601     0.78500
O3          O  0.92642879  0.73319147  0.10753399    -0.60000
O4          O  0.96072927  0.79529218  0.10318475    -0.50900
C5          C  0.98511208  0.73265900  0.14197208     0.71100
O6          O  0.97759172  0.71300143  0.12497272    -0.45800
C7          C  0.06391514  0.82910102  0.10616295     0.75800
O8          O  0.99682967  0.72495102  0.07987243    -0.57600
O9          O  0.03313848  0.82921430  0.10454512    -0.47700
O10         O  0.98166937  0.76448473  0.06932012    -0.54100
C11         C  0.92695768  0.76438127  0.10550487     0.86000
O12         O  0.99723098  0.76829414  0.13925745    -0.55900
O13         O  0.05792902  0.79513988  0.10573379    -0.59200
In14       In  0.92217535  0.64818153  0.26828607     1.36900
C15         C  0.94527386  0.67825390  0.30718217     0.78500
O16         O  0.89081740  0.67839782  0.26334034    -0.60000
O17         O  0.85646465  0.61651722  0.26903349    -0.50900
C18         C  0.94737191  0.67469927  0.22899248     0.71100
O19         O  0.96121523  0.69698145  0.24512545    -0.45800
C20         C  0.93110817  0.58829260  0.26966534     0.75800
O21         O  0.96858986  0.69193167  0.29145432    -0.57600
O22         O  0.89775271  0.58360744  0.26929729    -0.47700
O23         O  0.91109845  0.64980723  0.30281663    -0.54100
C24         C  0.85706307  0.64754394  0.26573278     0.86000
O25         O  0.92214854  0.63917078  0.23341687    -0.55900
O26         O  0.95981915  0.62376066  0.26979408    -0.59200
In27       In  0.05799872  0.71899056  0.60184488     1.36900
C28         C  0.03349567  0.71324605  0.64201772     0.78500
O29         O  0.02726281  0.65304952  0.60020110    -0.60000
O30         O  0.08970128  0.68862492  0.59894187    -0.50900
C31         C  0.02792521  0.71703037  0.56350548     0.71100
O32         O  0.00827704  0.70924805  0.58055243    -0.45800
C33         C  0.12281055  0.79060992  0.60368789     0.75800
O34         O  0.02001808  0.72349321  0.62713337    -0.57600
O35         O  0.12290952  0.75971371  0.60282467    -0.47700
O36         O  0.05815831  0.70567307  0.63610567    -0.54100
C37         C  0.05900965  0.65433860  0.59920045     0.86000
O38         O  0.06234567  0.72565744  0.56650059    -0.55900
O39         O  0.08913906  0.78509100  0.60336177    -0.59200
In40       In  0.94059626  0.66483599  0.43747637     1.36900
C41         C  0.95728330  0.68861685  0.39715775     0.78500
O42         O  0.97503832  0.63763505  0.43189054    -0.60000
O43         O  0.91459033  0.60025961  0.44046764    -0.50900
C44         C  0.96914335  0.69009638  0.47645773     0.71100
O45         O  0.98552914  0.71128545  0.46007504    -0.45800
C46         C  0.87840029  0.66905494  0.43994296     0.75800
O47         O  0.98280697  0.70627767  0.41167873    -0.57600
O48         O  0.87598179  0.63679303  0.43823216    -0.47700
O49         O  0.92474804  0.65953673  0.40344190    -0.54100
C50         C  0.94633365  0.60316582  0.43595640     0.86000
O51         O  0.93889306  0.65673913  0.47249788    -0.55900
O52         O  0.91297500  0.69929051  0.44105461    -0.59200
In53       In  0.00016902  0.76292699  0.93498336     1.36900
C54         C  0.99427364  0.73812485  0.97461278     0.78500
O55         O  0.06618712  0.79390920  0.93485522    -0.60000
O56         O  0.04105512  0.82763144  0.93170001    -0.50900
C57         C  0.99975548  0.73438986  0.89693865     0.71100
O58         O  0.00236936  0.71918917  0.91391185    -0.45800
C59         C  0.93388797  0.76054993  0.93440709     0.75800
O60         O  0.98989136  0.71645287  0.95898122    -0.57600
O61         O  0.96742298  0.79217466  0.93444167    -0.47700
O62         O  0.00317347  0.77215554  0.96985511    -0.54100
C63         C  0.07191307  0.82745335  0.93201097     0.86000
O64         O  0.99583082  0.76269708  0.89981795    -0.55900
O65         O  0.93428390  0.72968742  0.93439700    -0.59200
In66       In  0.06647241  0.72423524  0.77159450     1.36900
C67         C  0.03947586  0.71834656  0.73229473     0.78500
O68         O  0.09535982  0.79003523  0.77242352    -0.60000
O69         O  0.13094766  0.76693958  0.76916484    -0.50900
C70         C  0.03784043  0.71879116  0.81039242     0.71100
O71         O  0.01746387  0.71201108  0.79379817    -0.45800
C72         C  0.06636088  0.65915404  0.77327678     0.75800
O73         O  0.02460312  0.72538797  0.74795253    -0.57600
O74         O  0.09740579  0.69315468  0.77414033    -0.47700
O75         O  0.06767232  0.71518255  0.73691025    -0.54100
C76         C  0.12954801  0.79711109  0.77043217     0.86000
O77         O  0.07259100  0.72884363  0.80675669    -0.55900
O78         O  0.03503996  0.65849611  0.77205125    -0.59200
In79       In  0.72683429  0.77724936  0.10209996     1.36900
C80         C  0.70741594  0.74996979  0.06256357     0.78500
O81         O  0.69461772  0.80739817  0.09850700    -0.60000
O82         O  0.75656902  0.84255145  0.10280201    -0.50900
C83         C  0.69520268  0.75171080  0.14057597     0.71100
O84         O  0.67822920  0.73262905  0.12378355    -0.45800
C85         C  0.78851155  0.77151992  0.10485561     0.75800
O86         O  0.68337359  0.73324385  0.07780897    -0.57600
O87         O  0.79155376  0.80392525  0.10248483    -0.47700
O88         O  0.73988944  0.78030761  0.06763454    -0.54100
C89         C  0.72525522  0.84148886  0.10038455     0.86000
O90         O  0.72793239  0.78333513  0.13733930    -0.55900
O91         O  0.75365520  0.74192938  0.10663432    -0.59200
In92       In  0.66434125  0.67190731  0.26676111     1.36900
C93         C  0.67245070  0.70323066  0.30538831     0.78500
O94         O  0.59863110  0.63697425  0.26408999    -0.60000
O95         O  0.62782806  0.60674872  0.26507424    -0.50900
C96         C  0.66537279  0.69995421  0.22810749     0.71100
O97         O  0.66090802  0.71472173  0.24476617    -0.45800
C98         C  0.72405236  0.66305355  0.26780053     0.75800
O99         O  0.69789584  0.72073144  0.29094555    -0.57600
O100        O  0.69029138  0.63699565  0.27456872    -0.47700
O101        O  0.64126456  0.67249089  0.29927636    -0.54100
C102        C  0.59565339  0.60429395  0.26350751     0.86000
O103        O  0.67013553  0.67244081  0.23166858    -0.55900
O104        O  0.72736725  0.69411663  0.26125192    -0.59200
In105      In  0.67453870  0.67434214  0.43594956     1.36900
C106        C  0.68066883  0.69975165  0.39610241     0.78500
O107        O  0.73994407  0.70598499  0.43930394    -0.60000
O108        O  0.70547953  0.64337552  0.43763505    -0.50900
C109        C  0.67894996  0.70457784  0.47417115     0.71100
O110        O  0.68777197  0.72511140  0.45741842    -0.45800
C111        C  0.60299592  0.60903735  0.43654129     0.75800
O112        O  0.66982762  0.71243935  0.41116433    -0.57600
O113        O  0.63407144  0.60927647  0.43617501    -0.47700
O114        O  0.68811335  0.67481522  0.40169497    -0.54100
C115        C  0.73927924  0.67453704  0.43899360     0.86000
O116        O  0.66698679  0.66912429  0.47095949    -0.55900
O117        O  0.60837851  0.64273105  0.43556173    -0.59200
In118      In  0.62277511  0.73019621  0.59799523     1.36900
C119        C  0.64086704  0.72437075  0.63790225     0.78500
O120        O  0.65503798  0.79610422  0.60151586    -0.60000
O121        O  0.59320842  0.76308445  0.59772453    -0.50900
C122        C  0.65549407  0.73456897  0.56050124     0.71100
O123        O  0.66907710  0.73065394  0.57771288    -0.45800
C124        C  0.55782274  0.65920217  0.59447018     0.75800
O125        O  0.66666509  0.73862568  0.62335928    -0.57600
O126        O  0.55812255  0.69040518  0.59506769    -0.47700
O127        O  0.60700238  0.71364158  0.63181965    -0.54100
C128        C  0.62432728  0.79652194  0.60017396     0.86000
O129        O  0.62622356  0.73707675  0.56288365    -0.55900
O130        O  0.59135937  0.66428330  0.59456159    -0.59200
In131      In  0.73242591  0.77076643  0.93307151     1.36900
C132        C  0.71095004  0.74478356  0.97266441     0.78500
O133        O  0.75926073  0.73522084  0.93158354    -0.60000
O134        O  0.79677356  0.79785219  0.93167224    -0.50900
C135        C  0.70499930  0.74718084  0.89400397     0.71100
O136        O  0.68556522  0.72782449  0.91030552    -0.45800
C137        C  0.72851345  0.83377203  0.93484021     0.75800
O138        O  0.68782624  0.72728714  0.95718534    -0.57600
O139        O  0.76064753  0.83595701  0.93420597    -0.47700
O140        O  0.74393729  0.77461976  0.96766870    -0.54100
C141        C  0.79404529  0.76533299  0.93171803     0.86000
O142        O  0.73853621  0.77722512  0.89792731    -0.55900
O143        O  0.69830533  0.79918921  0.93464929    -0.59200
In144      In  0.62284648  0.73173236  0.76846561     1.36900
C145        C  0.64107660  0.72513767  0.72855517     0.78500
O146        O  0.59262692  0.66707362  0.77470171    -0.60000
O147        O  0.55813005  0.69121665  0.77084285    -0.50900
C148        C  0.65230021  0.73530930  0.80687020     0.71100
O149        O  0.66545168  0.72857025  0.79026668    -0.45800
C150        C  0.62383491  0.79745286  0.76703505     0.75800
O151        O  0.66711818  0.74079881  0.74290623    -0.57600
O152        O  0.59250020  0.76371715  0.76758220    -0.47700
O153        O  0.60705659  0.71351889  0.73487085    -0.54100
C154        C  0.55866275  0.66090209  0.77425555     0.86000
O155        O  0.62633562  0.74235017  0.80322017    -0.55900
O156        O  0.65501047  0.79768103  0.76669001    -0.59200
In157      In  0.73089914  0.05212134  0.10349262     1.36900
C158        C  0.71560158  0.05885711  0.06317770     0.78500
O159        O  0.75973368  0.11728558  0.10872353    -0.60000
O160        O  0.79528013  0.09404898  0.10702766    -0.50900
C161        C  0.69565136  0.04316279  0.14082018     0.71100
O162        O  0.68098250  0.04468918  0.12337016    -0.45800
C163        C  0.72762706  0.98521301  0.10145198     0.75800
O164        O  0.68992452  0.04843139  0.07759936    -0.57600
O165        O  0.75944498  0.01820709  0.10365745    -0.47700
O166        O  0.74807354  0.06590635  0.06962317    -0.54100
C167        C  0.79401352  0.12423668  0.10928544     0.86000
O168        O  0.72786514  0.04589634  0.13876044    -0.55900
O169        O  0.69740806  0.98645295  0.10023795    -0.59200
In170      In  0.66853389  0.10496783  0.26284314     1.36900
C171        C  0.67649179  0.09211307  0.30366162     0.78500
O172        O  0.73291728  0.13398847  0.25636314    -0.60000
O173        O  0.70926662  0.16932652  0.25696025    -0.50900
C174        C  0.66109918  0.06900839  0.22596578     0.71100
O175        O  0.66682070  0.05715304  0.24337697    -0.45800
C176        C  0.60170942  0.10159535  0.26502861     0.75800
O177        O  0.66264972  0.06481434  0.28996256    -0.57600
O178        O  0.63462334  0.13329125  0.26219376    -0.47700
O179        O  0.68671331  0.12516910  0.29620191    -0.54100
C180        C  0.73935044  0.16802234  0.25454562     0.86000
O181        O  0.65764056  0.09778474  0.22805008    -0.55900
O182        O  0.60296069  0.07136791  0.26687832    -0.59200
In183      In  0.66970078  0.11169891  0.43559664     1.36900
C184        C  0.67335409  0.09382676  0.39509609     0.78500
O185        O  0.60367321  0.07492295  0.43467223    -0.60000
O186        O  0.63348426  0.13711989  0.43705718    -0.50900
C187        C  0.66320313  0.08235567  0.47431019     0.71100
O188        O  0.67049856  0.06838501  0.45824488    -0.45800
C189        C  0.73990333  0.17803431  0.43797765     0.75800
O190        O  0.66555512  0.06946431  0.40996660    -0.57600
O191        O  0.70830475  0.17677182  0.43679960    -0.47700
O192        O  0.67801392  0.12565259  0.40109844    -0.54100
C193        C  0.60100505  0.10429449  0.43688193     0.86000
O194        O  0.66105949  0.11146910  0.47038342    -0.55900
O195        O  0.73557011  0.14477578  0.43892622    -0.59200
In196      In  0.61706344  0.00133844  0.60153221     1.36900
C197        C  0.64564856  0.02423941  0.64050600     0.78500
O198        O  0.58870545  0.03532104  0.60601202    -0.60000
O199        O  0.55231913  0.97324442  0.60187544    -0.50900
C200        C  0.63828880  0.02854211  0.56199537     0.71100
O201        O  0.66202991  0.04453807  0.57738948    -0.45800
C202        C  0.61991689  0.93751596  0.60028321     0.75800
O203        O  0.66171711  0.04730565  0.62477608    -0.57600
O204        O  0.58814719  0.93599961  0.60144314    -0.47700
O205        O  0.61540222  0.99117822  0.63606809    -0.54100
C206        C  0.55425528  0.00509605  0.60430208     0.86000
O207        O  0.60526793  0.99871594  0.56693977    -0.55900
O208        O  0.65022329  0.97206300  0.59912697    -0.59200
In209      In  0.73423534  0.04444140  0.93268318     1.36900
C210        C  0.71751459  0.05275182  0.97258992     0.78500
O211        O  0.69865931  0.97837549  0.93505594    -0.60000
O212        O  0.76084244  0.00896024  0.93312268    -0.50900
C213        C  0.70294593  0.04100439  0.89519345     0.71100
O214        O  0.68804362  0.04332510  0.91240312    -0.45800
C215        C  0.79873624  0.11516491  0.92631020     0.75800
O216        O  0.69223760  0.04116974  0.95793767    -0.57600
O217        O  0.79938272  0.08483718  0.92965708    -0.47700
O218        O  0.75018535  0.05943788  0.96666769    -0.54100
C219        C  0.72846339  0.97628547  0.93465964     0.86000
O220        O  0.73239363  0.03874591  0.89748717    -0.55900
O221        O  0.76478197  0.10890216  0.92633766    -0.59200
In222      In  0.61987466  0.00282926  0.76940532     1.36900
C223        C  0.64736804  0.02544581  0.73006263     0.78500
O224        O  0.65226004  0.97270182  0.77053722    -0.60000
O225        O  0.58971193  0.93755284  0.76860461    -0.50900
C226        C  0.64660763  0.02514409  0.80885311     0.71100
O227        O  0.66490209  0.04658346  0.79285399    -0.45800
C228        C  0.55823140  0.00900546  0.77047493     0.75800
O229        O  0.66508444  0.04777871  0.74579718    -0.57600
O230        O  0.55527471  0.97649978  0.76945439    -0.47700
O231        O  0.61602985  0.99338374  0.73464320    -0.54100
C232        C  0.62128059  0.93858355  0.76948257     0.86000
O233        O  0.61508727  0.99326916  0.80425447    -0.55900
O234        O  0.59312422  0.03874901  0.77053489    -0.59200
In235      In  0.27964806  0.05093705  0.10469802     1.36900
C236        C  0.29551465  0.04606720  0.06420937     0.78500
O237        O  0.24821295  0.98510134  0.10689426    -0.60000
O238        O  0.21483757  0.01075536  0.10755327    -0.50900
C239        C  0.31019104  0.05163973  0.14211400     0.71100
O240        O  0.32646317  0.05245999  0.12472506    -0.45800
C241        C  0.28473535  0.11905255  0.10424567     0.75800
O242        O  0.32066943  0.05443920  0.07860639    -0.57600
O243        O  0.25277172  0.08609808  0.10610641    -0.47700
O244        O  0.26400374  0.04140588  0.07074352    -0.54100
C245        C  0.21452945  0.97953399  0.10813797     0.86000
O246        O  0.27923111  0.05128366  0.14003043    -0.55900
O247        O  0.31479115  0.11740492  0.10319044    -0.59200
In248      In  0.39570028  0.10478375  0.26732833     1.36900
C249        C  0.37887723  0.08312289  0.30769303     0.78500
O250        O  0.42505942  0.07139137  0.26572861    -0.60000
O251        O  0.46063573  0.13396686  0.26549198    -0.50900
C252        C  0.36776012  0.07754171  0.22849876     0.71100
O253        O  0.35103878  0.05716564  0.24506470    -0.45800
C254        C  0.38928181  0.16622706  0.26821170     0.75800
O255        O  0.35399284  0.06337584  0.29319455    -0.57600
O256        O  0.42145476  0.16914710  0.26518188    -0.47700
O257        O  0.41065267  0.11303439  0.30128008    -0.54100
C258        C  0.45936647  0.10220556  0.26537063     0.86000
O259        O  0.39766701  0.11121386  0.23230313    -0.55900
O260        O  0.36002815  0.13152457  0.27116075    -0.59200
In261      In  0.39989553  0.11347514  0.43895653     1.36900
C262        C  0.38333260  0.09120725  0.39852984     0.78500
O263        O  0.36598434  0.14215247  0.43737015    -0.60000
O264        O  0.42801945  0.17870475  0.44069900    -0.50900
C265        C  0.37214932  0.08456977  0.47751108     0.71100
O266        O  0.35331120  0.06659679  0.46080437    -0.45800
C267        C  0.45956614  0.10500812  0.44156911     0.75800
O268        O  0.35806889  0.07308390  0.41315789    -0.57600
O269        O  0.46391055  0.13832584  0.44126350    -0.47700
O270        O  0.41560916  0.12068018  0.40474529    -0.54100
C271        C  0.39604085  0.17671406  0.43913256     0.86000
O272        O  0.40393324  0.11706514  0.47411317    -0.55900
O273        O  0.42435209  0.07595907  0.44049914    -0.59200
In274      In  0.34571624  0.00316914  0.60419664     1.36900
C275        C  0.34424412  0.02691486  0.64338998     0.78500
O276        O  0.28015174  0.97224186  0.60269342    -0.60000
O277        O  0.30494358  0.93788780  0.60463765    -0.50900
C278        C  0.34724910  0.02938144  0.56498224     0.71100
O279        O  0.34171682  0.04403742  0.58132079    -0.45800
C280        C  0.41235837  0.00618352  0.60535087     0.75800
O281        O  0.35660549  0.05072699  0.62786474    -0.57600
O282        O  0.37919253  0.97456632  0.60309686    -0.47700
O283        O  0.33373372  0.99238415  0.63862834    -0.54100
C284        C  0.27421101  0.93834184  0.60386847     0.86000
O285        O  0.35268694  0.00241958  0.56908806    -0.55900
O286        O  0.41146826  0.03659935  0.60748307    -0.59200
In287      In  0.35111002  0.01059556  0.77243764     1.36900
C288        C  0.34800973  0.03186740  0.73299712     0.78500
O289        O  0.41696184  0.04350304  0.77044222    -0.60000
O290        O  0.38413336  0.98143852  0.77370477    -0.50900
C291        C  0.35432102  0.03949287  0.81087989     0.71100
O292        O  0.35541214  0.05713476  0.79403336    -0.45800
C293        C  0.27865754  0.94703728  0.77269978     0.75800
O294        O  0.35697584  0.05547180  0.74837131    -0.57600
O295        O  0.30893252  0.94574962  0.77230222    -0.47700
O296        O  0.34237195  0.99915696  0.73793070    -0.54100
C297        C  0.41761369  0.01292548  0.77218283     0.86000
O298        O  0.35191162  0.00762309  0.80770478    -0.55900
O299        O  0.28537950  0.98123409  0.77410604    -0.59200
In300      In  0.28040718  0.05214111  0.93235084     1.36900
C301        C  0.29439453  0.04790685  0.97319140     0.78500
O302        O  0.31293866  0.11792488  0.93313232    -0.60000
O303        O  0.25075699  0.08481111  0.93068130    -0.50900
C304        C  0.31684785  0.05931922  0.89603875     0.71100
O305        O  0.33209748  0.06048582  0.91380226    -0.45800
C306        C  0.21912612  0.97894890  0.92743472     0.75800
O307        O  0.31930513  0.05438312  0.95893802    -0.57600
O308        O  0.21671254  0.00857840  0.92649778    -0.47700
O309        O  0.26381752  0.04497740  0.96641768    -0.54100
C310        C  0.28226953  0.11839537  0.93169619     0.86000
O311        O  0.28359877  0.05454567  0.89724671    -0.55900
O312        O  0.25344261  0.98703763  0.93053664    -0.59200
In313      In  0.27849796  0.32339913  0.10376214     1.36900
C314        C  0.29890091  0.34725532  0.06386044     0.78500
O315        O  0.31327072  0.29580487  0.10218879    -0.60000
O316        O  0.25080960  0.25858851  0.10354454    -0.50900
C317        C  0.30426847  0.34644849  0.14295731     0.71100
O318        O  0.32154745  0.36854100  0.12698165    -0.45800
C319        C  0.21859674  0.33179712  0.10723967     0.75800
O320        O  0.32316079  0.36455011  0.07894620    -0.57600
O321        O  0.21427348  0.29869745  0.10501227    -0.47700
O322        O  0.26560568  0.31848060  0.06945606    -0.54100
C323        C  0.28313993  0.26106684  0.10263721     0.86000
O324        O  0.27464995  0.31293482  0.13844069    -0.55900
O325        O  0.25398263  0.36067842  0.10756242    -0.59200
In326      In  0.39058582  0.37491916  0.26705483     1.36900
C327        C  0.37536089  0.37998506  0.30735323     0.78500
O328        O  0.35701137  0.30917583  0.27099943    -0.60000
O329        O  0.41793962  0.34030107  0.26355099    -0.50900
C330        C  0.35876572  0.37063534  0.22977500     0.71100
O331        O  0.34321561  0.37217200  0.24693347    -0.45800
C332        C  0.45216198  0.44840986  0.26268557     0.75800
O333        O  0.34963583  0.37040811  0.29311338    -0.57600
O334        O  0.45507449  0.41904477  0.26376810    -0.47700
O335        O  0.40720748  0.38526113  0.30081794    -0.54100
C336        C  0.38653276  0.30746426  0.26720065     0.86000
O337        O  0.38894051  0.36971758  0.23217119    -0.55900
O338        O  0.41737731  0.43990200  0.26393084    -0.59200
In339      In  0.39324750  0.38404077  0.43850284     1.36900
C340        C  0.37738401  0.38675032  0.39806498     0.78500
O341        O  0.42029866  0.44963245  0.43912731    -0.60000
O342        O  0.45730848  0.42803530  0.44144768    -0.50900
C343        C  0.36104217  0.38024803  0.47603065     0.71100
O344        O  0.34353172  0.37693943  0.45873002    -0.45800
C345        C  0.39179798  0.31771877  0.43889240     0.75800
O346        O  0.35237284  0.37931626  0.41248106    -0.57600
O347        O  0.42259023  0.35128604  0.44185475    -0.47700
O348        O  0.40905711  0.39177729  0.40456587    -0.54100
C349        C  0.45489037  0.45771132  0.44091444     0.86000
O350        O  0.39397598  0.38471337  0.47366922    -0.55900
O351        O  0.36138713  0.31808169  0.43565216    -0.59200
In352      In  0.33676317  0.44439164  0.59915857     1.36900
C353        C  0.34278683  0.42563215  0.63892012     0.78500
O354        O  0.40240645  0.47639440  0.59532450    -0.60000
O355        O  0.37617621  0.50945353  0.59705825    -0.50900
C356        C  0.33278877  0.41338876  0.56117642     0.71100
O357        O  0.33375245  0.39774006  0.57838063    -0.45800
C358        C  0.26991493  0.44085999  0.60036472     0.75800
O359        O  0.33201920  0.40093572  0.62395962    -0.57600
O360        O  0.30316709  0.47255343  0.59900962    -0.47700
O361        O  0.34970892  0.45858396  0.63336323    -0.54100
C362        C  0.40736417  0.50995147  0.59567884     0.86000
O363        O  0.33284156  0.44415809  0.56368857    -0.55900
O364        O  0.27073594  0.41034583  0.60178936    -0.59200
In365      In  0.33853636  0.44571203  0.76901560     1.36900
C366        C  0.34403914  0.42621486  0.72927812     0.78500
O367        O  0.27311995  0.41382714  0.76442821    -0.60000
O368        O  0.30674640  0.47583373  0.76934582    -0.50900
C369        C  0.33307080  0.41599420  0.80779957     0.71100
O370        O  0.34068492  0.40315260  0.79139700    -0.45800
C371        C  0.40929983  0.51061808  0.77377868     0.75800
O372        O  0.33092167  0.40095771  0.74412646    -0.57600
O373        O  0.37866907  0.51063682  0.77088886    -0.47700
O374        O  0.35366811  0.46002444  0.73503689    -0.54100
C375        C  0.27333739  0.44490842  0.76642059     0.86000
O376        O  0.32662750  0.44233004  0.80388260    -0.55900
O377        O  0.40360036  0.47677213  0.77401003    -0.59200
In378      In  0.28299144  0.32725010  0.93312650     1.36900
C379        C  0.30342360  0.34955159  0.97330689     0.78500
O380        O  0.25749420  0.36407003  0.93333766    -0.60000
O381        O  0.21857624  0.30169780  0.93281055    -0.50900
C382        C  0.31020628  0.35733052  0.89458550     0.71100
O383        O  0.32895582  0.37487366  0.91136328    -0.45800
C384        C  0.28342065  0.26218495  0.93190092     0.75800
O385        O  0.32757399  0.36787387  0.95826339    -0.57600
O386        O  0.25227372  0.26182734  0.93094196    -0.47700
O387        O  0.27089516  0.31990316  0.96761598    -0.54100
C388        C  0.22239053  0.33470978  0.93328831     0.86000
O389        O  0.27872524  0.32448877  0.89781519    -0.55900
O390        O  0.31448242  0.29614691  0.93337320    -0.59200
In391      In  0.01460734  0.33985113  0.10325736     1.36900
C392        C  0.01268682  0.35702614  0.06226118     0.78500
O393        O  0.08047776  0.37140053  0.10475901    -0.60000
O394        O  0.04653299  0.30928771  0.10509816    -0.50900
C395        C  0.01728624  0.37326630  0.14031437     0.71100
O396        O  0.01625773  0.38795063  0.12271549    -0.45800
C397        C  0.94293865  0.27583219  0.10864423     0.75800
O398        O  0.02707590  0.38348003  0.07643016    -0.57600
O399        O  0.97339898  0.27526874  0.10627219    -0.47700
O400        O  0.99974556  0.32302294  0.06922364    -0.54100
C401        C  0.08039804  0.34037647  0.10591586     0.86000
O402        O  0.01700292  0.34226654  0.13845004    -0.55900
O403        O  0.94911837  0.30994219  0.10785698    -0.59200
In404      In  0.94865774  0.39053228  0.26300440     1.36900
C405        C  0.96574713  0.38519360  0.30342308     0.78500
O406        O  0.97786208  0.45599271  0.26645360    -0.60000
O407        O  0.91566845  0.41987581  0.26428114    -0.50900
C408        C  0.98504979  0.40092270  0.22574510     0.71100
O409        O  0.99790064  0.39615042  0.24302565    -0.45800
C410        C  0.88741694  0.31826953  0.25495536     0.75800
O411        O  0.99168428  0.39912056  0.28895470    -0.57600
O412        O  0.88499167  0.34776292  0.25696188    -0.47700
O413        O  0.93175701  0.37330360  0.29693563    -0.54100
C414        C  0.94588086  0.45415597  0.26622798     0.86000
O415        O  0.95482266  0.40183196  0.22807195    -0.55900
O416        O  0.92174877  0.32586086  0.25726134    -0.59200
In417      In  0.06833630  0.45111132  0.59878309     1.36900
C418        C  0.04291086  0.43080155  0.63862837     0.78500
O419        O  0.09496288  0.41526993  0.60069081    -0.60000
O420        O  0.13280221  0.47748605  0.59798223    -0.50900
C421        C  0.04170816  0.42479796  0.55953013     0.71100
O422        O  0.02219899  0.40639747  0.57603257    -0.45800
C423        C  0.06581579  0.51499575  0.59766331     0.75800
O424        O  0.02438404  0.40760658  0.62329783    -0.57600
O425        O  0.09765295  0.51650693  0.59796602    -0.47700
O426        O  0.07394154  0.46269314  0.63340438    -0.54100
C427        C  0.12979403  0.44495641  0.59930959     0.86000
O428        O  0.07452065  0.45574096  0.56349994    -0.55900
O429        O  0.03521278  0.48054341  0.59759460    -0.59200
In430      In  0.95442417  0.40023679  0.43477978     1.36900
C431        C  0.97064865  0.39415264  0.39441918     0.78500
O432        O  0.92180043  0.33454327  0.43850698    -0.60000
O433        O  0.88928450  0.36110942  0.43565129    -0.50900
C434        C  0.98646999  0.40331063  0.47239282     0.71100
O435        O  0.99995572  0.39873149  0.45523925    -0.45800
C436        C  0.95601760  0.46631607  0.43474011     0.75800
O437        O  0.99698769  0.40731843  0.40863571    -0.57600
O438        O  0.92658291  0.43358462  0.44047708    -0.47700
O439        O  0.93759643  0.38548450  0.40097668    -0.54100
C440        C  0.88843260  0.32974239  0.43740779     0.86000
O441        O  0.95856412  0.40778880  0.46979231    -0.55900
O442        O  0.98517883  0.46546272  0.42868954    -0.59200
In443      In  0.07096583  0.45384478  0.76810256     1.36900
C444        C  0.13441667  0.45086911  0.76550960     0.78500
O445        O  0.07658172  0.45494970  0.80342334    -0.60000
O446        O  0.02372462  0.40786424  0.78993632    -0.50900
C447        C  0.06813573  0.51726452  0.77057285     0.71100
O448        O  0.09995028  0.51878743  0.76968205    -0.45800
C449        C  0.04372961  0.43321282  0.72874005     0.75800
O450        O  0.13601791  0.48223097  0.76917403    -0.57600
O451        O  0.02917198  0.40851938  0.74385063    -0.47700
O452        O  0.10021544  0.42092069  0.76275555    -0.54100
C453        C  0.04327614  0.42413751  0.80668090     0.86000
O454        O  0.03751520  0.48282676  0.77055372    -0.55900
O455        O  0.07152060  0.46722718  0.73401451    -0.59200
In456      In  0.01562374  0.33517711  0.93047168     1.36900
C457        C  0.01210442  0.35433493  0.97085821     0.78500
O458        O  0.95057125  0.30097493  0.92533257    -0.60000
O459        O  0.97823341  0.26964694  0.92803515    -0.50900
C460        C  0.01665718  0.36570288  0.89282086     0.71100
O461        O  0.00857742  0.37676710  0.90977963    -0.45800
C462        C  0.08302780  0.33973290  0.93157537     0.75800
O463        O  0.02743679  0.38009319  0.95631538    -0.57600
O464        O  0.05008012  0.30768437  0.92994947    -0.47700
O465        O  0.99831718  0.31979611  0.96448521    -0.54100
C466        C  0.94659189  0.26782091  0.92532033     0.86000
O467        O  0.02547321  0.34078019  0.89558308    -0.55900
O468        O  0.08168426  0.37002442  0.93223402    -0.59200
C469        C  0.02943737  0.40832606  0.82857694    -0.04500
C470        C  0.00961794  0.36751325  0.83257680    -0.01600
C471        C  0.00271427  0.35343766  0.85371692     0.03400
C472        C  0.01615601  0.38004178  0.87107402    -0.04500
C473        C  0.03216968  0.42031221  0.86710263    -0.01600
C474        C  0.03889656  0.43443280  0.84592025     0.03400
C475        C  0.99839789  0.34000736  0.81506398     0.38100
C476        C  0.04327511  0.44757696  0.88471402     0.38000
C477        C  0.05573810  0.47597462  0.84201638     0.36500
C478        C  0.98154053  0.31132381  0.85760068     0.36500
N479        N  0.06914116  0.50908556  0.83887542    -0.38400
N480        N  0.96453709  0.27777595  0.86076319    -0.38400
N481        N  0.05194625  0.46933421  0.89874770    -0.37800
N482        N  0.98950881  0.31804725  0.80111379    -0.37800
C483        C  0.03063591  0.42444356  0.70623565    -0.04500
C484        C  0.02728422  0.45231367  0.69472641    -0.01600
C485        C  0.02778947  0.45219024  0.67232227     0.03400
C486        C  0.03008174  0.42324893  0.66123524    -0.04500
C487        C  0.02731820  0.39189293  0.67269376    -0.01600
C488        C  0.02831001  0.39282894  0.69525687     0.03400
C489        C  0.02498601  0.48224966  0.70599985     0.38100
C490        C  0.02608947  0.36018010  0.66134383     0.38000
C491        C  0.03056897  0.36338512  0.70697957     0.36500
C492        C  0.02788572  0.48310547  0.66065080     0.36500
N493        N  0.03258822  0.34002144  0.71634849    -0.38400
N494        N  0.02820485  0.50789402  0.65137477    -0.38400
N495        N  0.02459019  0.33449335  0.65236829    -0.37800
N496        N  0.02315242  0.50602362  0.71506746    -0.37800
C497        C  0.00085927  0.40301968  0.49420074    -0.04500
C498        C  0.04130157  0.42189795  0.49860816    -0.01600
C499        C  0.05433887  0.42591597  0.51990085     0.03400
C500        C  0.02720984  0.41281696  0.53713715    -0.04500
C501        C  0.98653864  0.39149361  0.53253038    -0.01600
C502        C  0.97351213  0.38598179  0.51121851     0.03400
C503        C  0.06992180  0.43947840  0.48145410     0.38100
C504        C  0.95766825  0.37683729  0.54958354     0.38000
C505        C  0.93160963  0.36284324  0.50684504     0.36500
C506        C  0.09582768  0.44344701  0.52389640     0.36500
N507        N  0.89823143  0.34446701  0.50325354    -0.38400
N508        N  0.12896500  0.45721898  0.52692044    -0.38400
N509        N  0.93439338  0.36516593  0.56303160    -0.37800
N510        N  0.09296563  0.45383660  0.46791262    -0.37800
C511        C  0.97369543  0.38410318  0.32649543    -0.04500
C512        C  0.94638995  0.35111435  0.33888926    -0.01600
C513        C  0.94762500  0.35345211  0.36131003     0.03400
C514        C  0.97641610  0.38865806  0.37160132    -0.04500
C515        C  0.00645558  0.41998700  0.35934887    -0.01600
C516        C  0.00496422  0.41783845  0.33680628     0.03400
C517        C  0.91636101  0.31484634  0.32858806     0.38100
C518        C  0.03710089  0.45558039  0.36981663     0.38000
C519        C  0.03365303  0.45168055  0.32432388     0.36500
C520        C  0.91846256  0.31980816  0.37384835     0.36500
N521        N  0.05641585  0.47870764  0.31431594    -0.38400
N522        N  0.89523189  0.29312954  0.38390788    -0.38400
N523        N  0.06160678  0.48398426  0.37817134    -0.37800
N524        N  0.89238683  0.28585433  0.32045441    -0.37800
C525        C  0.01074891  0.36385801  0.03909569    -0.04500
C526        C  0.97568430  0.33791269  0.02786904    -0.01600
C527        C  0.97549199  0.33747552  0.00542135     0.03400
C528        C  0.01044292  0.36261890  0.99384973    -0.04500
C529        C  0.04457731  0.39134076  0.00497077    -0.01600
C530        C  0.04466994  0.39204326  0.02757657     0.03400
C531        C  0.93971710  0.31084891  0.03943296     0.38100
C532        C  0.08037602  0.41827165  0.99330481     0.38000
C533        C  0.08044122  0.41988139  0.03890252     0.36500
C534        C  0.93916930  0.31053230  0.99421435     0.36500
N535        N  0.10900443  0.44220436  0.04791598    -0.38400
N536        N  0.91008359  0.28901587  0.98539387    -0.38400
N537        N  0.10899098  0.43981005  0.98402207    -0.37800
N538        N  0.91097619  0.28910298  0.04855144    -0.37800
C539        C  0.01726135  0.38922724  0.16180746    -0.04500
C540        C  0.99840499  0.40940936  0.16533454    -0.01600
C541        C  0.99168247  0.41699389  0.18635254     0.03400
C542        C  0.00177661  0.40264376  0.20412056    -0.04500
C543        C  0.02431003  0.38620785  0.20051783    -0.01600
C544        C  0.03285064  0.38059268  0.17951398     0.03400
C545        C  0.98383211  0.42053347  0.14752285     0.38100
C546        C  0.03713363  0.37291252  0.21816804     0.38000
C547        C  0.05764470  0.36550607  0.17620465     0.36500
C548        C  0.97395823  0.43942911  0.18952100     0.36500
N549        N  0.07743546  0.35359912  0.17347595    -0.38400
N550        N  0.95997006  0.45742055  0.19201190    -0.38400
N551        N  0.04738037  0.36200351  0.23211407    -0.37800
N552        N  0.97200424  0.42938203  0.13337794    -0.37800
C553        C  0.12003439  0.34099675  0.93307264    -0.04500
C554        C  0.15363218  0.36852843  0.92114929    -0.01600
C555        C  0.18762434  0.36727590  0.92161288     0.03400
C556        C  0.18808330  0.33837522  0.93393812    -0.04500
C557        C  0.15521575  0.31234345  0.94675279    -0.01600
C558        C  0.12135354  0.31359582  0.94627998     0.03400
C559        C  0.15278591  0.39709871  0.90769362     0.38100
C560        C  0.15669281  0.28527344  0.96120293     0.38000
C561        C  0.08822105  0.28741254  0.95998244     0.36500
C562        C  0.22155982  0.39489917  0.90880146     0.36500
N563        N  0.06174330  0.26670782  0.97089397    -0.38400
N564        N  0.24871686  0.41698168  0.89865933    -0.38400
N565        N  0.15791266  0.26392101  0.97287063    -0.37800
N566        N  0.15222332  0.41992759  0.89694747    -0.37800
C567        C  0.23731467  0.44551144  0.76608736    -0.04500
C568        C  0.20938677  0.42669168  0.74962998    -0.01600
C569        C  0.17612527  0.42919306  0.74905157     0.03400
C570        C  0.16991884  0.44923151  0.76538680    -0.04500
C571        C  0.19754115  0.46733071  0.78205206    -0.01600
C572        C  0.23138741  0.46603670  0.78221398     0.03400
C573        C  0.21548806  0.40582483  0.73293045     0.38100
C574        C  0.19030422  0.48576688  0.79966527     0.38000
C575        C  0.25947405  0.48471837  0.79949030     0.36500
C576        C  0.14941303  0.41280544  0.73110162     0.36500
N577        N  0.28198107  0.49961426  0.81319239    -0.38400
N578        N  0.12850635  0.40005758  0.71660555    -0.38400
N579        N  0.18437105  0.50017919  0.81378187    -0.37800
N580        N  0.22034450  0.38907863  0.71967629    -0.37800
C581        C  0.33188098  0.40198410  0.83004064    -0.04500
C582        C  0.32018460  0.36270893  0.83405107    -0.01600
C583        C  0.31504312  0.34869687  0.85519719     0.03400
C584        C  0.32241223  0.37394927  0.87265354    -0.04500
C585        C  0.33752090  0.41407307  0.86872348    -0.01600
C586        C  0.34167733  0.42790178  0.84759330     0.03400
C587        C  0.31208949  0.33601880  0.81650827     0.38100
C588        C  0.34755973  0.44107220  0.88638939     0.38000
C589        C  0.35631367  0.46911155  0.84410233     0.36500
C590        C  0.30230850  0.30807074  0.85895374     0.36500
N591        N  0.36782068  0.50192849  0.84139391    -0.38400
N592        N  0.29211694  0.27568438  0.86196497    -0.38400
N593        N  0.35586700  0.46271870  0.90044683    -0.37800
N594        N  0.30585015  0.31471996  0.80254623    -0.37800
C595        C  0.16466244  0.44216702  0.59902322    -0.04500
C596        C  0.19658862  0.46693694  0.58532977    -0.01600
C597        C  0.23065880  0.46607553  0.58572395     0.03400
C598        C  0.23313619  0.44015692  0.59963047    -0.04500
C599        C  0.20087505  0.41458532  0.61292626    -0.01600
C600        C  0.16680821  0.41570170  0.61265825     0.03400
C601        C  0.19433059  0.49288863  0.57039824     0.38100
C602        C  0.20333648  0.38858026  0.62770640     0.38000
C603        C  0.13488837  0.39092944  0.62730243     0.36500
C604        C  0.26303145  0.49168520  0.57141565     0.36500
N605        N  0.10972785  0.37118606  0.63910320    -0.38400
N606        N  0.28894806  0.51217333  0.56016150    -0.38400
N607        N  0.20507821  0.36781439  0.63960920    -0.37800
N608        N  0.19294584  0.51381289  0.55845422    -0.37800
C609        C  0.34795051  0.41839821  0.70655868    -0.04500
C610        C  0.31638265  0.38626133  0.69547395    -0.01600
C611        C  0.31591728  0.38629959  0.67289287     0.03400
C612        C  0.34730492  0.41807924  0.66150421    -0.04500
C613        C  0.38114015  0.44702669  0.67260354    -0.01600
C614        C  0.38137168  0.44737736  0.69500642     0.03400
C615        C  0.28317678  0.35473944  0.70715370     0.38100
C616        C  0.41538798  0.47741151  0.66091574     0.38000
C617        C  0.41560447  0.47875916  0.70612324     0.36500
C618        C  0.28188192  0.35540874  0.66149706     0.36500
N619        N  0.44289055  0.50410115  0.71482538    -0.38400
N620        N  0.25475809  0.33075954  0.65235178    -0.38400
N621        N  0.44269848  0.50159307  0.65161728    -0.37800
N622        N  0.25670695  0.32939648  0.71643227    -0.37800
C623        C  0.34608405  0.38090932  0.49766052    -0.04500
C624        C  0.35911825  0.36995691  0.51557480    -0.01600
C625        C  0.35429236  0.37995723  0.53631131     0.03400
C626        C  0.33364168  0.39838035  0.53961102    -0.04500
C627        C  0.31639828  0.40496505  0.52187518    -0.01600
C628        C  0.32305146  0.39679770  0.50097226     0.03400
C629        C  0.37754497  0.34811671  0.51281524     0.38100
C630        C  0.29203468  0.42054269  0.52497695     0.38000
C631        C  0.30749959  0.40641265  0.48296536     0.36500
C632        C  0.37343564  0.37391147  0.55395472     0.36500
N633        N  0.29502205  0.41406250  0.46862076    -0.38400
N634        N  0.38910127  0.36948314  0.56796084    -0.38400
N635        N  0.27253953  0.43289692  0.52735759    -0.37800
N636        N  0.39195069  0.33042608  0.51075110    -0.37800
C637        C  0.37036043  0.38588293  0.33012273    -0.04500
C638        C  0.40206422  0.41852187  0.34075716    -0.01600
C639        C  0.40273673  0.42020974  0.36308330     0.03400
C640        C  0.37140598  0.38956155  0.37505798    -0.04500
C641        C  0.33767845  0.35912829  0.36444978    -0.01600
C642        C  0.33718287  0.35721356  0.34192206     0.03400
C643        C  0.43514352  0.44987900  0.32880062     0.38100
C644        C  0.30503579  0.32804687  0.37667335     0.38000
C645        C  0.30396652  0.32419603  0.33110241     0.36500
C646        C  0.43700696  0.45272091  0.37361932     0.36500
N647        N  0.27738368  0.29776908  0.32252775    -0.38400
N648        N  0.46499440  0.47859224  0.38155509    -0.38400
N649        N  0.27908094  0.30327824  0.38650386    -0.37800
N650        N  0.46192220  0.47485775  0.31954467    -0.37800
C651        C  0.11684877  0.34007510  0.10803080    -0.04500
C652        C  0.15348943  0.37195288  0.10034745    -0.01600
C653        C  0.18719791  0.37019866  0.10106639     0.03400
C654        C  0.18461168  0.33620852  0.10896579    -0.04500
C655        C  0.14874017  0.30561748  0.11800747    -0.01600
C656        C  0.11522976  0.30764223  0.11763295     0.03400
C657        C  0.15665962  0.40620906  0.09098317     0.38100
C658        C  0.14642497  0.27246409  0.12837664     0.38000
C659        C  0.07938077  0.27642031  0.12782008     0.36500
C660        C  0.22430901  0.40339278  0.09307606     0.36500
N661        N  0.05113887  0.25143225  0.13605082    -0.38400
N662        N  0.25376890  0.43000520  0.08681001    -0.38400
N663        N  0.14456964  0.24601226  0.13668286    -0.37800
N664        N  0.15945125  0.43372643  0.08351725    -0.37800
C665        C  0.30713462  0.35897129  0.04109086    -0.04500
C666        C  0.33949561  0.36242785  0.03032637    -0.01600
C667        C  0.34118653  0.36396785  0.00774675     0.03400
C668        C  0.31024507  0.36139174  0.99606290    -0.04500
C669        C  0.28069244  0.36284515  0.00696691    -0.01600
C670        C  0.27880832  0.36110058  0.02932632     0.03400
C671        C  0.36886849  0.36054695  0.04226178     0.38100
C672        C  0.25141410  0.36509995  0.99507477     0.38000
C673        C  0.24624680  0.35930668  0.04014137     0.36500
C674        C  0.37344521  0.36595184  0.99659088     0.36500
N675        N  0.21996497  0.35730953  0.04866885    -0.38400
N676        N  0.39947100  0.36798028  0.98772948    -0.38400
N677        N  0.22817204  0.36713383  0.98565224    -0.37800
N678        N  0.39217363  0.35875764  0.05178630    -0.37800
C679        C  0.31761565  0.35788130  0.16538547    -0.04500
C680        C  0.35798255  0.38377047  0.17007013    -0.01600
C681        C  0.37092685  0.38997354  0.19134915     0.03400
C682        C  0.34379099  0.37001401  0.20816629    -0.04500
C683        C  0.30319542  0.34709799  0.20373228    -0.01600
C684        C  0.29010053  0.34090376  0.18242398     0.03400
C685        C  0.38679756  0.40264605  0.15308786     0.38100
C686        C  0.27483487  0.32848475  0.22094668     0.38000
C687        C  0.24816807  0.31674743  0.17820093     0.36500
C688        C  0.41246530  0.41713802  0.19590204     0.36500
N689        N  0.21472097  0.29734334  0.17490592    -0.38400
N690        N  0.44554409  0.43878108  0.19955698    -0.38400
N691        N  0.25214522  0.31377647  0.23464425    -0.37800
N692        N  0.40989694  0.41777262  0.13961033    -0.37800
C693        C  0.28304851  0.15541812  0.93138154    -0.04500
C694        C  0.31009227  0.18768979  0.94421950    -0.01600
C695        C  0.31043651  0.22259153  0.94420597     0.03400
C696        C  0.28343297  0.22553653  0.93154424    -0.04500
C697        C  0.25619665  0.19312339  0.91876737    -0.01600
C698        C  0.25632742  0.15845068  0.91850712     0.03400
C699        C  0.33663044  0.18458758  0.95822271     0.38100
C700        C  0.22851197  0.19553299  0.90540020     0.38000
C701        C  0.22982316  0.12645972  0.90431034     0.47300
C702        C  0.33765056  0.25482366  0.95804289     0.36500
N703        N  0.20884648  0.10099891  0.89295157    -0.38400
N704        N  0.35938846  0.28044022  0.96909781    -0.38400
N705        N  0.20626529  0.19722573  0.89478022    -0.37800
N706        N  0.35772343  0.18208750  0.96941926    -0.37800
C707        C  0.35369448  0.05319544  0.83283440    -0.04500
C708        C  0.33708797  0.07542580  0.83683521    -0.01600
C709        C  0.32915653  0.08098764  0.85793304     0.03400
C710        C  0.33514647  0.06223629  0.87504294    -0.04500
C711        C  0.35478227  0.04295042  0.87126856    -0.01600
C712        C  0.36569090  0.04018894  0.85032373     0.03400
C713        C  0.32585634  0.09068862  0.81942864     0.38100
C714        C  0.36085546  0.02305118  0.88847771     0.38000
C715        C  0.38952382  0.02406834  0.84687405     0.36500
C716        C  0.31415775  0.10567371  0.86200516     0.36500
N717        N  0.40895161  0.01176057  0.84414616    -0.38400
N718        N  0.30241588  0.12543114  0.86536694    -0.38400
N719        N  0.36527433  0.00663274  0.90211312    -0.37800
N720        N  0.31659470  0.10281343  0.80561164    -0.37800
C721        C  0.34316330  0.03992585  0.71065150    -0.04500
C722        C  0.37516881  0.07015096  0.69889608    -0.01600
C723        C  0.37447086  0.06864326  0.67635045     0.03400
C724        C  0.34157150  0.03701195  0.66577052    -0.04500
C725        C  0.30745328  0.01043644  0.67762136    -0.01600
C726        C  0.30826567  0.01195573  0.69999479     0.03400
C727        C  0.40953989  0.10122636  0.70997189     0.38100
C728        C  0.27186395  0.98045832  0.66679448     0.38000
C729        C  0.27350680  0.98386092  0.71215758     0.36500
C730        C  0.40859534  0.09781202  0.66425508     0.36500
N731        N  0.24575725  0.96163789  0.72186505    -0.38400
N732        N  0.43587408  0.12128134  0.65465978    -0.38400
N733        N  0.24354466  0.95654757  0.65814552    -0.37800
N734        N  0.43678245  0.12626456  0.71885981    -0.37800
C735        C  0.39404815  0.21226939  0.43938821    -0.04500
C736        C  0.41808957  0.24373059  0.45346263    -0.01600
C737        C  0.41632413  0.27746038  0.45372448     0.03400
C738        C  0.39170068  0.28096515  0.43931853    -0.04500
C739        C  0.36776150  0.24957892  0.42516025    -0.01600
C740        C  0.36837171  0.21512304  0.42549222     0.03400
C741        C  0.44410767  0.24121052  0.46817349     0.38100
C742        C  0.34381974  0.25327414  0.40946686     0.38000
C743        C  0.34346182  0.18319658  0.41090999     0.36500
C744        C  0.43900776  0.30796081  0.46945131     0.36500
N745        N  0.32345506  0.15768144  0.39934598    -0.38400
N746        N  0.45699191  0.33218212  0.48204273    -0.38400
N747        N  0.32488299  0.25614604  0.39681636    -0.37800
N748        N  0.46507861  0.23949570  0.47985985    -0.37800
C749        C  0.35953595  0.06903327  0.49960896    -0.04500
C750        C  0.34244910  0.02870713  0.50413929    -0.01600
C751        C  0.33669253  0.01552516  0.52548325     0.03400
C752        C  0.34803207  0.04252384  0.54261350    -0.04500
C753        C  0.36227410  0.08227336  0.53800729    -0.01600
C754        C  0.36823667  0.09546104  0.51667246     0.03400
C755        C  0.33270262  0.00086485  0.48695611     0.38100
C756        C  0.37242877  0.11032594  0.55511261     0.38000
C757        C  0.38378104  0.13662249  0.51235475     0.36500
C758        C  0.31892536  0.97389943  0.52970109     0.36500
N759        N  0.39635279  0.16946503  0.50888489    -0.38400
N760        N  0.30483656  0.94074259  0.53310305    -0.38400
N761        N  0.38044268  0.13287362  0.56864736    -0.37800
N762        N  0.32487548  0.97849846  0.47334240    -0.37800
C763        C  0.38480287  0.26995995  0.26691491    -0.04500
C764        C  0.36493436  0.24160424  0.28321147    -0.01600
C765        C  0.36598810  0.20739647  0.28365103     0.03400
C766        C  0.38638083  0.20106936  0.26760283    -0.04500
C767        C  0.40492544  0.22869083  0.25090371    -0.01600
C768        C  0.40418567  0.26295250  0.25056156     0.03400
C769        C  0.34472404  0.24830548  0.30003858     0.38100
C770        C  0.42403528  0.22136521  0.23368533     0.38000
C771        C  0.42231920  0.29031303  0.23288737     0.36500
C772        C  0.34797592  0.17994869  0.30128170     0.36500
N773        N  0.43668677  0.31195899  0.21872131    -0.38400
N774        N  0.33380895  0.15834475  0.31547905    -0.38400
N775        N  0.43916842  0.21525203  0.22003624    -0.37800
N776        N  0.32856134  0.25368432  0.31341359    -0.37800
C777        C  0.37335214  0.07324746  0.33071437    -0.04500
C778        C  0.34118240  0.06849952  0.34225669    -0.01600
C779        C  0.34265298  0.07080368  0.36481183     0.03400
C780        C  0.37697725  0.07951515  0.37567900    -0.04500
C781        C  0.40748253  0.08069511  0.36407743    -0.01600
C782        C  0.40488207  0.07609940  0.34182960     0.03400
C783        C  0.30783340  0.06377043  0.33096541     0.38100
C784        C  0.44255769  0.08819928  0.37475313     0.38000
C785        C  0.43517611  0.07495468  0.33018482     0.36500
C786        C  0.30999675  0.06679206  0.37663049     0.36500
N787        N  0.45900755  0.07364138  0.32086052    -0.38400
N788        N  0.28381674  0.06328983  0.38610511    -0.38400
N789        N  0.47113096  0.09489797  0.38283435    -0.37800
N790        N  0.28114871  0.05996238  0.32198011    -0.37800
C791        C  0.28617720  0.15637697  0.10300809    -0.04500
C792        C  0.31492611  0.19025431  0.11428656    -0.01600
C793        C  0.31438790  0.22474740  0.11397079     0.03400
C794        C  0.28527228  0.22570270  0.10220531    -0.04500
C795        C  0.25729753  0.19219218  0.09044187    -0.01600
C796        C  0.25767117  0.15773298  0.09088513     0.03400
C797        C  0.34386359  0.18909934  0.12716006     0.38100
C798        C  0.22840152  0.19324778  0.07744254     0.38000
C799        C  0.22897401  0.12387206  0.07840826     0.36500
C800        C  0.34248901  0.25841487  0.12675076     0.36500
N801        N  0.20601471  0.09689356  0.06848828    -0.38400
N802        N  0.36475579  0.28521115  0.13701338    -0.38400
N803        N  0.20536815  0.19412858  0.06712217    -0.37800
N804        N  0.36690050  0.18822210  0.13748258    -0.37800
C805        C  0.29919230  0.04315533  0.99619531    -0.04500
C806        C  0.26701418  0.01219567  0.00759374    -0.01600
C807        C  0.26819656  0.01088440  0.02992828     0.03400
C808        C  0.30070243  0.04144469  0.04122016    -0.04500
C809        C  0.33445218  0.07027007  0.02985321    -0.01600
C810        C  0.33374100  0.07102871  0.00729245     0.03400
C811        C  0.23173703  0.98232016  0.99650285     0.38100
C812        C  0.36884025  0.10054706  0.04128363     0.38000
C813        C  0.36726590  0.10234419  0.99568115     0.36500
C814        C  0.23526840  0.97830620  0.04136552     0.36500
N815        N  0.39396160  0.12736291  0.98638137    -0.38400
N816        N  0.20898598  0.95232920  0.05041494    -0.38400
N817        N  0.39640604  0.12469703  0.05036061    -0.37800
N818        N  0.20321973  0.95870176  0.98789818    -0.37800
C819        C  0.35371794  0.06447936  0.20616588    -0.04500
C820        C  0.38046586  0.08215702  0.18882916    -0.01600
C821        C  0.36660836  0.07579657  0.16766350     0.03400
C822        C  0.32590921  0.05195471  0.16356063    -0.04500
C823        C  0.29970357  0.03063962  0.18053669    -0.01600
C824        C  0.31350543  0.03668244  0.20172839     0.03400
C825        C  0.42253292  0.10706869  0.19256051     0.38100
C826        C  0.25836836  0.00202052  0.17618875     0.38000
C827        C  0.28584565  0.01492676  0.21882741     0.36500
C828        C  0.39433287  0.09513455  0.15024663     0.36500
N829        N  0.26361882  0.99720496  0.23236289    -0.38400
N830        N  0.41650394  0.11035374  0.13635978    -0.38400
N831        N  0.22548324  0.97914856  0.17265514    -0.37800
N832        N  0.45607469  0.12700585  0.19544896    -0.37800
C833        C  0.52325070  0.01164521  0.77171345    -0.04500
C834        C  0.49034336  0.98403096  0.78408999    -0.01600
C835        C  0.45648593  0.98537885  0.78476840     0.03400
C836        C  0.45452731  0.01352028  0.77254337    -0.04500
C837        C  0.48775399  0.04165414  0.76050494    -0.01600
C838        C  0.52213663  0.04107390  0.76038282     0.03400
C839        C  0.49151669  0.95471228  0.79665890     0.38100
C840        C  0.48627226  0.07026259  0.74746231     0.38000
C841        C  0.55585831  0.07013911  0.74789705     0.36500
C842        C  0.42419343  0.95842273  0.79876358     0.36500
N843        N  0.58267082  0.09349263  0.73801349    -0.38400
N844        N  0.39861659  0.93707510  0.80997899    -0.38400
N845        N  0.48522471  0.09310957  0.73696443    -0.37800
N846        N  0.49229493  0.93116113  0.80662948    -0.37800
C847        C  0.83529626  0.15496871  0.92322547    -0.04500
C848        C  0.86961026  0.15896883  0.91496318    -0.01600
C849        C  0.90577697  0.19585306  0.91506467     0.03400
C850        C  0.90773712  0.22970801  0.92293727    -0.04500
C851        C  0.87254119  0.22629372  0.92911732    -0.01600
C852        C  0.83656114  0.18925322  0.92940505     0.03400
C853        C  0.86777995  0.12517143  0.90554778     0.38100
C854        C  0.87288977  0.26073331  0.93602493     0.38000
C855        C  0.80142055  0.18658109  0.93671282     0.36500
C856        C  0.94051808  0.19878004  0.90679873     0.36500
N857        N  0.77322432  0.18458062  0.94255103    -0.38400
N858        N  0.96832961  0.20085205  0.90019277    -0.38400
N859        N  0.87283172  0.28782621  0.94139359    -0.37800
N860        N  0.86624896  0.09852558  0.89795812    -0.37800
C861        C  0.66090230  0.03493219  0.83133344    -0.04500
C862        C  0.63380335  0.01657023  0.84846318    -0.01600
C863        C  0.64735084  0.01881531  0.86941090     0.03400
C864        C  0.68794214  0.04144804  0.87373603    -0.04500
C865        C  0.71476930  0.06369910  0.85717615    -0.01600
C866        C  0.70149161  0.05978310  0.83599646     0.03400
C867        C  0.59182632  0.99590085  0.84477598     0.38100
C868        C  0.75605000  0.09142518  0.86203235     0.38000
C869        C  0.73009681  0.08053400  0.81911143     0.36500
C870        C  0.61938369  0.99615929  0.88628564     0.36500
N871        N  0.75308845  0.09716786  0.80575260    -0.38400
N872        N  0.59708670  0.97793414  0.89968153    -0.38400
N873        N  0.78886406  0.11382207  0.86604021    -0.37800
N874        N  0.55830504  0.97968803  0.84194024    -0.37800
C875        C  0.44935225  0.00720780  0.60490359    -0.04500
C876        C  0.47940467  0.02961010  0.61994070    -0.01600
C877        C  0.51420374  0.02978788  0.61949966     0.03400
C878        C  0.51862855  0.00659749  0.60442147    -0.04500
C879        C  0.48851679  0.98423768  0.58938762    -0.01600
C880        C  0.45435274  0.98501141  0.58943175     0.03400
C881        C  0.47368586  0.05070088  0.63665129     0.38100
C882        C  0.49296758  0.96108548  0.57339113     0.38000
C883        C  0.42489974  0.96388411  0.57301903     0.36500
C884        C  0.54459927  0.05246494  0.63521182     0.36500
N885        N  0.40148182  0.94719357  0.55989909    -0.38400
N886        N  0.56874273  0.07059884  0.64778805    -0.38400
N887        N  0.49649959  0.94258414  0.56067702    -0.37800
N888        N  0.46912629  0.06722805  0.65015583    -0.37800
C889        C  0.66134675  0.03402761  0.70768636    -0.04500
C890        C  0.66364521  0.00527982  0.69642206    -0.01600
C891        C  0.66295969  0.00482276  0.67403014     0.03400
C892        C  0.66018196  0.03326070  0.66274780    -0.04500
C893        C  0.66404397  0.06545555  0.67387654    -0.01600
C894        C  0.66459728  0.06580943  0.69645615     0.03400
C895        C  0.66509585  0.97511707  0.70795555     0.38100
C896        C  0.66444556  0.09646991  0.66224364     0.38000
C897        C  0.66574207  0.09725869  0.70806064     0.36500
C898        C  0.66323321  0.97389740  0.66255481     0.36500
N899        N  0.66696659  0.12255288  0.71732466    -0.38400
N900        N  0.66334806  0.94926326  0.65334378    -0.38400
N901        N  0.66497666  0.12135578  0.65294842    -0.37800
N902        N  0.66641657  0.95117038  0.71713702    -0.37800
C903        C  0.77879098  0.21598848  0.43740517    -0.04500
C904        C  0.78463016  0.24602721  0.42338695    -0.01600
C905        C  0.82048721  0.28300201  0.42336469     0.03400
C906        C  0.85100141  0.29044094  0.43738064    -0.04500
C907        C  0.84558831  0.26018744  0.45104651    -0.01600
C908        C  0.80980139  0.22287855  0.45083778     0.03400
C909        C  0.75434686  0.23844393  0.40818224     0.38100
C910        C  0.87610456  0.26794439  0.46607229     0.38000
C911        C  0.80479741  0.19201816  0.46481961     0.36500
C912        C  0.82620377  0.31292884  0.40833470     0.36500
N913        N  0.80116010  0.16746560  0.47590971    -0.38400
N914        N  0.83064582  0.33669110  0.39633996    -0.38400
N915        N  0.90040706  0.27429523  0.47811436    -0.37800
N916        N  0.73027440  0.23228329  0.39601949    -0.37800
C917        C  0.56310480  0.10107123  0.43983804    -0.04500
C918        C  0.52864498  0.07168946  0.42924074    -0.01600
C919        C  0.49368732  0.07099000  0.43109286     0.03400
C920        C  0.49351024  0.10076298  0.44271870    -0.04500
C921        C  0.52690516  0.12790469  0.45478287    -0.01600
C922        C  0.56132599  0.12770756  0.45356912     0.03400
C923        C  0.52931664  0.04312595  0.41570637     0.38100
C924        C  0.52545704  0.15517049  0.46910692     0.38000
C925        C  0.59441644  0.15408744  0.46718714     0.36500
C926        C  0.45832490  0.04003289  0.42053459     0.36500
N927        N  0.62061549  0.17483184  0.47816382    -0.38400
N928        N  0.43016854  0.01521242  0.41218505    -0.38400
N929        N  0.52420347  0.17679490  0.48058727    -0.37800
N930        N  0.52964652  0.02024842  0.40485179    -0.37800
C931        C  0.65637016  0.06615175  0.49627573    -0.04500
C932        C  0.62387219  0.06040115  0.50799882    -0.01600
C933        C  0.61942201  0.05004294  0.52969784     0.03400
C934        C  0.64653595  0.04382925  0.53981926    -0.04500
C935        C  0.67887074  0.04919855  0.52814035    -0.01600
C936        C  0.68360822  0.06003497  0.50635057     0.03400
C937        C  0.59395816  0.06371751  0.49758663     0.38100
C938        C  0.70719832  0.04351830  0.53845756     0.38000
C939        C  0.71684610  0.06559169  0.49442353     0.36500
C940        C  0.58772654  0.04754984  0.54190417     0.36500
N941        N  0.74324856  0.06985994  0.48483394    -0.38400
N942        N  0.56280736  0.04607251  0.55169031    -0.38400
N943        N  0.73018724  0.03941255  0.54660841    -0.37800
N944        N  0.56974214  0.06587351  0.48940980    -0.37800
C945        C  0.77914290  0.20412832  0.25074537    -0.04500
C946        C  0.81316108  0.20737974  0.25902342    -0.01600
C947        C  0.84951133  0.24417615  0.25909477     0.03400
C948        C  0.85211608  0.27801596  0.25091579    -0.04500
C949        C  0.81933765  0.27349139  0.24015125    -0.01600
C950        C  0.78306278  0.23679921  0.24010969     0.03400
C951        C  0.81069530  0.17352504  0.26852673     0.38100
C952        C  0.82281508  0.30651268  0.22890387     0.38000
C953        C  0.74985533  0.23282153  0.22891628     0.36500
C954        C  0.88355217  0.24715204  0.26855287     0.36500
N955        N  0.72348475  0.22976530  0.21996067    -0.38400
N956        N  0.91059069  0.24923269  0.27604416    -0.38400
N957        N  0.82558810  0.33281778  0.21992113    -0.37800
N958        N  0.80880039  0.14653203  0.27607475    -0.37800
C959        C  0.56460260  0.10031719  0.26585478    -0.04500
C960        C  0.53171162  0.07225524  0.25374816    -0.01600
C961        C  0.49735067  0.07289214  0.25345767     0.03400
C962        C  0.49549892  0.10138621  0.26542388    -0.04500
C963        C  0.52848467  0.12930068  0.27761649    -0.01600
C964        C  0.56268652  0.12853720  0.27792312     0.03400
C965        C  0.53395583  0.04400595  0.24073018     0.38100
C966        C  0.52734399  0.15872669  0.29011939     0.38000
C967        C  0.59565658  0.15630540  0.29121449     0.36500
C968        C  0.46494664  0.04575988  0.23970439     0.36500
N969        N  0.62189467  0.17831348  0.30182474    -0.38400
N970        N  0.43935895  0.02434191  0.22857185    -0.38400
N971        N  0.52657351  0.18241036  0.29997289    -0.37800
N972        N  0.53601394  0.02162385  0.23034204    -0.37800
C973        C  0.67942884  0.08672243  0.32694276    -0.04500
C974        C  0.71210846  0.11665208  0.33849230    -0.01600
C975        C  0.71115220  0.11705289  0.36094587     0.03400
C976        C  0.67770894  0.08736992  0.37218012    -0.04500
C977        C  0.64673047  0.05534293  0.36079082    -0.01600
C978        C  0.64752844  0.05503073  0.33820821     0.03400
C979        C  0.74656691  0.14776619  0.32728218     0.38100
C980        C  0.61262899  0.02430893  0.37215618     0.38000
C981        C  0.61400001  0.02380294  0.32663006     0.36500
C982        C  0.74437365  0.14881776  0.37253589     0.36500
N983        N  0.58723359  0.99900803  0.31733142    -0.38400
N984        N  0.77080299  0.17416297  0.38177332    -0.38400
N985        N  0.58530470  0.99942511  0.38112605    -0.37800
N986        N  0.77403916  0.17267983  0.31841281    -0.37800
C987        C  0.83046036  0.16439515  0.11195660    -0.04500
C988        C  0.83234199  0.19851431  0.10470877    -0.01600
C989        C  0.86859483  0.23555888  0.10478099     0.03400
C990        C  0.90330924  0.23888518  0.11178862    -0.04500
C991        C  0.90046067  0.20551545  0.12096576    -0.01600
C992        C  0.86443214  0.16865769  0.12090726     0.03400
C993        C  0.79772282  0.19551719  0.09627303     0.38100
C994        C  0.93428663  0.20901388  0.13096501     0.38000
C995        C  0.86274745  0.13501286  0.13036206     0.36500
C996        C  0.86988252  0.26999278  0.09702225     0.36500
N997        N  0.86159063  0.10841206  0.13777500    -0.38400
N998        N  0.87062592  0.29722637  0.09100226    -0.38400
N999        N  0.96122434  0.21158925  0.13906734    -0.37800
N1000       N  0.77004930  0.19328985  0.08946757    -0.37800
C1001       C  0.70922958  0.06179659  0.04017687    -0.04500
C1002       C  0.73914593  0.09419402  0.02845986    -0.01600
C1003       C  0.74014408  0.09229824  0.00610230     0.03400
C1004       C  0.71067718  0.05833851  0.99519124    -0.04500
C1005       C  0.67807516  0.02804852  0.00669845    -0.01600
C1006       C  0.67751813  0.02963506  0.02923160     0.03400
C1007       C  0.76974898  0.12916811  0.03948327     0.38100
C1008       C  0.64677626  0.99381405  0.99559609     0.38000
C1009       C  0.64614648  0.99665909  0.04115009     0.36500
C1010       C  0.77246257  0.12489441  0.99437630     0.36500
N1011       N  0.62124383  0.97035535  0.05073051    -0.38400
N1012       N  0.79840990  0.15076496  0.98508501    -0.38400
N1013       N  0.62171154  0.96645904  0.98677052    -0.37800
N1014       N  0.79419410  0.15712314  0.04819202    -0.37800
C1015       C  0.66121692  0.05302233  0.20444137    -0.04500
C1016       C  0.64572984  0.06150918  0.18654861    -0.01600
C1017       C  0.65430763  0.05547473  0.16563750     0.03400
C1018       C  0.67823696  0.04062869  0.16227989    -0.04500
C1019       C  0.68876592  0.02684933  0.18008917    -0.01600
C1020       C  0.68064540  0.03331950  0.20102691     0.03400
C1021       C  0.62164463  0.07744846  0.18943580     0.38100
C1022       C  0.70832017  0.00617697  0.17701564     0.38000
C1023       C  0.69437669  0.02134548  0.21889747     0.36500
C1024       C  0.63980595  0.06648161  0.14769574     0.36500
N1025       N  0.70544948  0.01175439  0.23304383    -0.38400
N1026       N  0.62808941  0.07519881  0.13346557    -0.38400
N1027       N  0.72389968  0.98964538  0.17463412    -0.37800
N1028       N  0.60261358  0.09039671  0.19163599    -0.37800
C1029       C  0.44863538  0.54774067  0.77641395    -0.04500
C1030       C  0.45157092  0.58141807  0.78512392    -0.01600
C1031       C  0.48793063  0.61791294  0.78535661     0.03400
C1032       C  0.52193277  0.62128068  0.77694887    -0.04500
C1033       C  0.51979845  0.58691339  0.77014953    -0.01600
C1034       C  0.48326253  0.55037995  0.76968145     0.03400
C1035       C  0.41734072  0.57871830  0.79429723     0.38100
C1036       C  0.55484058  0.58891451  0.76304757     0.38000
C1037       C  0.48149090  0.51605362  0.76142323     0.36500
C1038       C  0.49028898  0.65180557  0.79481370     0.36500
N1039       N  0.48033219  0.48882503  0.75480331    -0.38400
N1040       N  0.49213915  0.67877438  0.80237822    -0.38400
N1041       N  0.58270789  0.59025633  0.75751716    -0.37800
N1042       N  0.39013485  0.57666996  0.80160731    -0.37800
C1043       C  0.62187608  0.90244112  0.76896421    -0.04500
C1044       C  0.64497426  0.89732164  0.78366232    -0.01600
C1045       C  0.64595565  0.86315423  0.78284879     0.03400
C1046       C  0.62374105  0.83386197  0.76739828    -0.04500
C1047       C  0.59990883  0.83854839  0.75304347    -0.01600
C1048       C  0.59916031  0.87282084  0.75373798     0.03400
C1049       C  0.66600738  0.92613370  0.80038717     0.38100
C1050       C  0.57658747  0.80840306  0.73728251     0.38000
C1051       C  0.57580684  0.87805643  0.73834354     0.36500
C1052       C  0.66795211  0.85701576  0.79873975     0.36500
N1053       N  0.55729186  0.88242640  0.72609992    -0.38400
N1054       N  0.68516317  0.85179740  0.81146814    -0.38400
N1055       N  0.55785326  0.78434170  0.72474623    -0.37800
N1056       N  0.68250501  0.94897546  0.81381714    -0.37800
C1057       C  0.72658212  0.86917794  0.93570801    -0.04500
C1058       C  0.69959413  0.87177793  0.92283099    -0.01600
C1059       C  0.69916833  0.90629248  0.92302135     0.03400
C1060       C  0.72610554  0.93860623  0.93584112    -0.04500
C1061       C  0.75212921  0.93548108  0.94923580    -0.01600
C1062       C  0.75231347  0.90090363  0.94920737     0.03400
C1063       C  0.67361855  0.83986084  0.90849792     0.38100
C1064       C  0.77794883  0.96743424  0.96360732     0.38000
C1065       C  0.77828569  0.89762770  0.96358313     0.36500
C1066       C  0.67211657  0.90909659  0.90930857     0.36500
N1067       N  0.79889812  0.89494503  0.97508233    -0.38400
N1068       N  0.65052160  0.91136893  0.89841840    -0.38400
N1069       N  0.79839340  0.99289565  0.97509787    -0.37800
N1070       N  0.65298019  0.81457003  0.89696916    -0.37800
C1071       C  0.68950345  0.73754956  0.87188097    -0.04500
C1072       C  0.65088943  0.72703909  0.86759562    -0.01600
C1073       C  0.63846886  0.72485681  0.84638336     0.03400
C1074       C  0.66487499  0.73416674  0.82910863    -0.04500
C1075       C  0.70288668  0.74255800  0.83345005    -0.01600
C1076       C  0.71479376  0.74353697  0.85470933     0.03400
C1077       C  0.62429355  0.72030716  0.88499424     0.38100
C1078       C  0.73063534  0.75198618  0.81628081     0.38000
C1079       C  0.75307618  0.75018959  0.85892091     0.36500
C1080       C  0.59809873  0.71272497  0.84258858     0.36500
N1081       N  0.78342568  0.75516526  0.86231689    -0.38400
N1082       N  0.56594409  0.70310378  0.83964410    -0.38400
N1083       N  0.75304877  0.75970840  0.80268406    -0.37800
N1084       N  0.60303835  0.71500303  0.89883245    -0.37800
C1085       C  0.52051064  0.61993898  0.59511463    -0.04500
C1086       C  0.49141961  0.61326193  0.61003764    -0.01600
C1087       C  0.45452740  0.57741874  0.61005252     0.03400
C1088       C  0.44663307  0.54734688  0.59550696    -0.04500
C1089       C  0.47624282  0.55332625  0.58111707    -0.01600
C1090       C  0.51322490  0.58956912  0.58096852     0.03400
C1091       C  0.50007000  0.64269530  0.62613974     0.38100
C1092       C  0.46801688  0.52300411  0.56575772     0.38000
C1093       C  0.54324849  0.59591762  0.56588394     0.36500
C1094       C  0.42502155  0.57134829  0.62548652     0.36500
N1095       N  0.56720651  0.60087026  0.55387964    -0.38400
N1096       N  0.40152196  0.56667282  0.63774279    -0.38400
N1097       N  0.46125281  0.49881297  0.55346532    -0.37800
N1098       N  0.50724956  0.66609738  0.63903448    -0.37800
C1099       C  0.62150662  0.90160978  0.60061078    -0.04500
C1100       C  0.59223426  0.86712473  0.61148727    -0.01600
C1101       C  0.59398643  0.83336643  0.61191388     0.03400
C1102       C  0.62441518  0.83319217  0.60110225    -0.04500
C1103       C  0.65400166  0.86769938  0.59058340    -0.01600
C1104       C  0.65267116  0.90170792  0.59040465     0.03400
C1105       C  0.56062977  0.86629371  0.62282815     0.38100
C1106       C  0.68530121  0.86802133  0.57922966     0.38000
C1107       C  0.68304526  0.93633404  0.57904234     0.36500
C1108       C  0.56527374  0.79931169  0.62435119     0.36500
N1109       N  0.70749052  0.96386501  0.57001706    -0.38400
N1110       N  0.54258043  0.77230102  0.63439339    -0.38400
N1111       N  0.71032883  0.86843139  0.57017016    -0.37800
N1112       N  0.53528169  0.86538945  0.63183001    -0.37800
C1113       C  0.64845240  0.72087205  0.66064972    -0.04500
C1114       C  0.67921344  0.75347254  0.67182293    -0.01600
C1115       C  0.67940285  0.75352193  0.69438110     0.03400
C1116       C  0.64846520  0.72119800  0.70575089    -0.04500
C1117       C  0.62030010  0.68694957  0.69446110    -0.01600
C1118       C  0.62053760  0.68669767  0.67203300     0.03400
C1119       C  0.70846964  0.78840867  0.66024023     0.38100
C1120       C  0.58974285  0.65235412  0.70583363     0.38000
C1121       C  0.59097760  0.65159013  0.66062717     0.36500
C1122       C  0.70935484  0.78826859  0.70573820     0.36500
N1123       N  0.56741261  0.62367108  0.65152348    -0.38400
N1124       N  0.73327058  0.81605466  0.71478244    -0.38400
N1125       N  0.56501645  0.62477414  0.71471790    -0.37800
N1126       N  0.73165234  0.81632573  0.65095481    -0.37800
C1127       C  0.49050809  0.49850491  0.44202927    -0.04500
C1128       C  0.52290445  0.50582432  0.45431851    -0.01600
C1129       C  0.55927326  0.54210934  0.45270296     0.03400
C1130       C  0.56367481  0.57186054  0.43893117    -0.04500
C1131       C  0.53056028  0.56569652  0.42781428    -0.01600
C1132       C  0.49382572  0.52945580  0.42975438     0.03400
C1133       C  0.51850834  0.47646870  0.46936270     0.38100
C1134       C  0.53465588  0.59555726  0.41331533     0.38000
C1135       C  0.45988896  0.52406409  0.41875882     0.36500
C1136       C  0.59205179  0.54878767  0.46554363     0.36500
N1137       N  0.43288227  0.52003617  0.41002130    -0.38400
N1138       N  0.61820378  0.55403489  0.47572158    -0.38400
N1139       N  0.53781533  0.61910505  0.40158674    -0.37800
N1140       N  0.51484992  0.45314777  0.48143206    -0.37800
C1141       C  0.68158743  0.71960726  0.49614465    -0.04500
C1142       C  0.69158820  0.70398433  0.51322077    -0.01600
C1143       C  0.68540054  0.71056469  0.53449687     0.03400
C1144       C  0.67060428  0.73430396  0.53888069    -0.04500
C1145       C  0.66588990  0.75425366  0.52186202    -0.01600
C1146       C  0.67064773  0.74643791  0.50055641     0.03400
C1147       C  0.70806879  0.68066070  0.50890907     0.38100
C1148       C  0.65542507  0.78256344  0.52618026     0.38000
C1149       C  0.66180867  0.76409952  0.48333063     0.36500
C1150       C  0.69181359  0.69067869  0.55155959     0.36500
N1151       N  0.65458058  0.77822075  0.46961428    -0.38400
N1152       N  0.69687582  0.67449412  0.56507292    -0.38400
N1153       N  0.64710569  0.80504471  0.52968569    -0.37800
N1154       N  0.72127395  0.66226904  0.50536899    -0.37800
C1155       C  0.55756598  0.56572955  0.26128218    -0.04500
C1156       C  0.52303069  0.55912581  0.27096875    -0.01600
C1157       C  0.48774271  0.52146549  0.27017807     0.03400
C1158       C  0.48714139  0.48953612  0.26056290    -0.04500
C1159       C  0.52106394  0.49684561  0.24973487    -0.01600
C1160       C  0.55594390  0.53472152  0.24996023     0.03400
C1161       C  0.52415164  0.59033783  0.28294805     0.38100
C1162       C  0.52008272  0.46564924  0.23780550     0.38000
C1163       C  0.59002085  0.54164503  0.23824355     0.36500
C1164       C  0.45259315  0.51572459  0.27993496     0.36500
N1165       N  0.61712672  0.54702669  0.22889527    -0.38400
N1166       N  0.42467514  0.51148803  0.28770731    -0.38400
N1167       N  0.51939939  0.44089532  0.22827144    -0.37800
N1168       N  0.52510195  0.61510982  0.29261303    -0.37800
C1169       C  0.68002040  0.71416153  0.32830971    -0.04500
C1170       C  0.65118969  0.71378752  0.34108682    -0.01600
C1171       C  0.65321711  0.71292119  0.36356376     0.03400
C1172       C  0.68362302  0.71140871  0.37333712    -0.04500
C1173       C  0.71446790  0.71563444  0.36057534    -0.01600
C1174       C  0.71290892  0.71748924  0.33818952     0.03400
C1175       C  0.61893829  0.71340579  0.33104879     0.38100
C1176       C  0.74721700  0.71648395  0.37041594     0.38000
C1177       C  0.74373165  0.71954310  0.32534981     0.36500
C1178       C  0.62244941  0.71070282  0.37646245     0.36500
N1179       N  0.76837937  0.72124124  0.31517284    -0.38400
N1180       N  0.59798178  0.70906671  0.38677899    -0.38400
N1181       N  0.77313019  0.71683008  0.37825294    -0.37800
N1182       N  0.59325766  0.71326095  0.32305834    -0.37800
C1183       C  0.72469099  0.87761920  0.10002331    -0.04500
C1184       C  0.69806840  0.88054415  0.11309263    -0.01600
C1185       C  0.69917144  0.91584895  0.11364373     0.03400
C1186       C  0.72595659  0.94791254  0.10058199    -0.04500
C1187       C  0.75180696  0.94458216  0.08708182    -0.01600
C1188       C  0.75173201  0.90984895  0.08712764     0.03400
C1189       C  0.67079629  0.84796372  0.12679252     0.38100
C1190       C  0.77756810  0.97637183  0.07256970     0.38000
C1191       C  0.77915764  0.90710080  0.07363126     0.36500
C1192       C  0.67427361  0.91993464  0.12853770     0.36500
N1193       N  0.80114744  0.90486689  0.06300601    -0.38400
N1194       N  0.65472333  0.92344056  0.14051612    -0.38400
N1195       N  0.79786065  0.00158428  0.06087262    -0.37800
N1196       N  0.64902275  0.82200978  0.13772045    -0.37800
C1197       C  0.70130821  0.73291696  0.99529472    -0.04500
C1198       C  0.72761677  0.72834600  0.00753650    -0.01600
C1199       C  0.72654625  0.72950509  0.02993412     0.03400
C1200       C  0.69970592  0.73603341  0.04020659    -0.04500
C1201       C  0.67068420  0.73635126  0.02810673    -0.01600
C1202       C  0.67120810  0.73431338  0.00560765     0.03400
C1203       C  0.75708497  0.72436228  0.99701139     0.38100
C1204       C  0.64281060  0.74263245  0.03862056     0.38000
C1205       C  0.64306832  0.73726891  0.99305801     0.36500
C1206       C  0.75417873  0.72558394  0.04246108     0.36500
N1207       N  0.62061984  0.73956886  0.98298823    -0.38400
N1208       N  0.77606065  0.72227896  0.05246899    -0.38400
N1209       N  0.62074755  0.74790727  0.04703474    -0.37800
N1210       N  0.78063300  0.72131245  0.98859807    -0.37800
C1211       C  0.67961468  0.73794833  0.16261167    -0.04500
C1212       C  0.69050753  0.76568608  0.17928557    -0.01600
C1213       C  0.68393599  0.75336309  0.20081068     0.03400
C1214       C  0.66561175  0.71309167  0.20586572    -0.04500
C1215       C  0.65035085  0.68504428  0.18912735    -0.01600
C1216       C  0.65724490  0.69737237  0.16764287     0.03400
C1217       C  0.70845170  0.80707301  0.17436557     0.38100
C1218       C  0.62783757  0.64320219  0.19393137     0.38000
C1219       C  0.64253362  0.66799173  0.15087611     0.36500
C1220       C  0.69829360  0.78256106  0.21763737     0.36500
N1221       N  0.63054047  0.64442379  0.13757864    -0.38400
N1222       N  0.70989362  0.80601001  0.23098314    -0.38400
N1223       N  0.60998507  0.60983421  0.19771921    -0.37800
N1224       N  0.72261174  0.84006338  0.17044246    -0.37800
C1225       C  0.16566155  0.83741338  0.76950248    -0.04500
C1226       C  0.17095868  0.86744946  0.78337382    -0.01600
C1227       C  0.20746160  0.90414431  0.78397335     0.03400
C1228       C  0.23868202  0.91085266  0.77070470    -0.04500
C1229       C  0.23211719  0.88207693  0.75558411    -0.01600
C1230       C  0.19601836  0.84540407  0.75514878     0.03400
C1231       C  0.13964998  0.86014365  0.79776194     0.38100
C1232       C  0.26202813  0.89076107  0.73979167     0.38000
C1233       C  0.19000684  0.81611633  0.73957888     0.36500
C1234       C  0.21320727  0.93436577  0.79873430     0.36500
N1235       N  0.18522541  0.79273060  0.72720779    -0.38400
N1236       N  0.21771534  0.95854509  0.81044157    -0.38400
N1237       N  0.28568960  0.89787362  0.72707466    -0.37800
N1238       N  0.11470379  0.85440709  0.80922347    -0.37800
C1239       C  0.06688456  0.62292461  0.77297735    -0.04500
C1240       C  0.03818374  0.58891740  0.78422506    -0.01600
C1241       C  0.03806062  0.55412929  0.78321847     0.03400
C1242       C  0.06711993  0.55329710  0.77122134    -0.04500
C1243       C  0.09567259  0.58735774  0.75988211    -0.01600
C1244       C  0.09574033  0.62202306  0.76089726     0.03400
C1245       C  0.00986520  0.59021179  0.79771110     0.38100
C1246       C  0.12406945  0.58646601  0.74624551     0.38000
C1247       C  0.12505484  0.65647266  0.74891975     0.36500
C1248       C  0.00844398  0.51957399  0.79496837     0.36500
N1249       N  0.14849645  0.68400659  0.73946895    -0.38400
N1250       N  0.98466805  0.49199196  0.80425999    -0.38400
N1251       N  0.14663395  0.58581656  0.73529868    -0.37800
N1252       N  0.98750695  0.59139370  0.80857224    -0.37800
C1253       C  0.11138389  0.86407529  0.92879747    -0.04500
C1254       C  0.14450882  0.87089950  0.94019569    -0.01600
C1255       C  0.18089716  0.90738602  0.93830360     0.03400
C1256       C  0.18388927  0.93801637  0.92588737    -0.04500
C1257       C  0.15161044  0.93003488  0.91321700    -0.01600
C1258       C  0.11577885  0.89309153  0.91445049     0.03400
C1259       C  0.14090479  0.84149943  0.95484323     0.38100
C1260       C  0.15532903  0.95947645  0.89850610     0.38000
C1261       C  0.08359368  0.88477516  0.90051744     0.36500
C1262       C  0.21478113  0.91353451  0.94978012     0.36500
N1263       N  0.05799355  0.87802015  0.88938825    -0.38400
N1264       N  0.24184245  0.91833666  0.95879421    -0.38400
N1265       N  0.15815269  0.98285258  0.88673122    -0.37800
N1266       N  0.13841046  0.81837759  0.96668656    -0.37800
C1267       C  0.89719538  0.76019579  0.93442856    -0.04500
C1268       C  0.86400168  0.73169836  0.92261678    -0.01600
C1269       C  0.83046618  0.73364012  0.92136985     0.03400
C1270       C  0.82919445  0.76304670  0.93268519    -0.04500
C1271       C  0.86165076  0.79028957  0.94533969    -0.01600
C1272       C  0.89567318  0.78930886  0.94592700     0.03400
C1273       C  0.86453113  0.70088429  0.91121460     0.38100
C1274       C  0.85971555  0.81862947  0.95850756     0.38000
C1275       C  0.92867173  0.81777605  0.95896963     0.36500
C1276       C  0.79811756  0.70642908  0.90762740     0.36500
N1277       N  0.95498711  0.84059912  0.96930373    -0.38400
N1278       N  0.77251316  0.68482442  0.89653183    -0.38400
N1279       N  0.85810287  0.84108240  0.96905823    -0.37800
N1280       N  0.86483248  0.67612213  0.90227637    -0.37800
C1281       C  0.00343625  0.72233679  0.87513215    -0.04500
C1282       C  0.98393057  0.72686173  0.85785151    -0.01600
C1283       C  0.99375196  0.72394411  0.83667338     0.03400
C1284       C  0.02306538  0.71618984  0.83251390    -0.04500
C1285       C  0.03995150  0.70811181  0.84985574    -0.01600
C1286       C  0.03016007  0.71115048  0.87102846     0.03400
C1287       C  0.95380931  0.73493137  0.86176943     0.38100
C1288       C  0.06784416  0.69696828  0.84612599     0.38000
C1289       C  0.04938601  0.70477797  0.88850433     0.36500
C1290       C  0.97489739  0.73102227  0.81930148     0.36500
N1291       N  0.06468222  0.69962251  0.90242187    -0.38400
N1292       N  0.95980080  0.73665873  0.80547507    -0.38400
N1293       N  0.09021839  0.68823839  0.84328047    -0.37800
N1294       N  0.92984257  0.74143881  0.86482280    -0.37800
C1295       C  0.94974947  0.56874359  0.43575139    -0.04500
C1296       C  0.93800142  0.54388604  0.45375013    -0.01600
C1297       C  0.94107716  0.51098727  0.45356797     0.03400
C1298       C  0.95577257  0.50263039  0.43534240    -0.04500
C1299       C  0.96821886  0.52793004  0.41749501    -0.01600
C1300       C  0.96504084  0.56081108  0.41767513     0.03400
C1301       C  0.92394212  0.55284323  0.47277193     0.38100
C1302       C  0.98283041  0.51931598  0.39860571     0.38000
C1303       C  0.97569287  0.58537431  0.39884299     0.36500
C1304       C  0.93047457  0.48654787  0.47248367     0.36500
N1305       N  0.98390803  0.60479208  0.38376648    -0.38400
N1306       N  0.92224379  0.46710197  0.48755708    -0.38400
N1307       N  0.99450112  0.51248022  0.38353833    -0.37800
N1308       N  0.91285857  0.55999044  0.48797562    -0.37800
C1309       C  0.77528520  0.67390544  0.43931469    -0.04500
C1310       C  0.80632024  0.69810437  0.45351704    -0.01600
C1311       C  0.84004689  0.69642270  0.45391073     0.03400
C1312       C  0.84319586  0.67112787  0.43980087    -0.04500
C1313       C  0.81269074  0.64796364  0.42513461    -0.01600
C1314       C  0.77869609  0.64896507  0.42507418     0.03400
C1315       C  0.80319845  0.72397595  0.46813526     0.38100
C1316       C  0.81704429  0.62457079  0.40925326     0.38000
C1317       C  0.74791343  0.62540064  0.40965391     0.36500
C1318       C  0.87088367  0.71979539  0.46930479     0.36500
N1319       N  0.72334878  0.60663064  0.39738932    -0.38400
N1320       N  0.89546631  0.73835995  0.48159901    -0.38400
N1321       N  0.82068355  0.60622264  0.39648419    -0.37800
N1322       N  0.80080223  0.74473266  0.47973859    -0.37800
C1323       C  0.06056639  0.61859234  0.59876493    -0.04500
C1324       C  0.08896018  0.61725468  0.61102866    -0.01600
C1325       C  0.09099097  0.58368187  0.61045745     0.03400
C1326       C  0.06442183  0.55087340  0.59775171    -0.04500
C1327       C  0.03615904  0.55230014  0.58542249    -0.01600
C1328       C  0.03420290  0.58595280  0.58595744     0.03400
C1329       C  0.11530707  0.64985599  0.62494650     0.38100
C1330       C  0.01013457  0.51984898  0.57137356     0.38000
C1331       C  0.00605638  0.58756797  0.57260758     0.36500
C1332       C  0.11977915  0.58262148  0.62354659     0.36500
N1333       N  0.98371805  0.58900073  0.56193236    -0.38400
N1334       N  0.14279132  0.58182471  0.63394442    -0.38400
N1335       N  0.98954764  0.49401664  0.56011872    -0.37800
N1336       N  0.13627429  0.67577219  0.63606278    -0.37800
C1337       C  0.15980500  0.82997092  0.60509376    -0.04500
C1338       C  0.18926587  0.83591277  0.61943954    -0.01600
C1339       C  0.22638501  0.87160006  0.61926268     0.03400
C1340       C  0.23433830  0.90176011  0.60475984    -0.04500
C1341       C  0.20427458  0.89651574  0.59106314    -0.01600
C1342       C  0.16701226  0.86072830  0.59129063     0.03400
C1343       C  0.18110250  0.80548264  0.63475706     0.38100
C1344       C  0.21231031  0.92701047  0.57586655     0.38000
C1345       C  0.13684843  0.85492931  0.57655519     0.36500
C1346       C  0.25611750  0.87741295  0.63435674     0.36500
N1347       N  0.11282541  0.85037020  0.56479198    -0.38400
N1348       N  0.27978247  0.88197899  0.64639140    -0.38400
N1349       N  0.21890502  0.95134725  0.56371746    -0.37800
N1350       N  0.17440193  0.78116753  0.64694768    -0.37800
C1351       C  0.02292065  0.71068158  0.66492217    -0.04500
C1352       C  0.02835333  0.74379803  0.67584514    -0.01600
C1353       C  0.02940243  0.74489120  0.69841750     0.03400
C1354       C  0.02562020  0.71316763  0.70997181    -0.04500
C1355       C  0.01590685  0.67852846  0.69911296    -0.01600
C1356       C  0.01449507  0.67724208  0.67669646     0.03400
C1357       C  0.03681350  0.77820207  0.66394169     0.38100
C1358       C  0.00911129  0.64471752  0.71107998     0.38000
C1359       C  0.00624310  0.64203973  0.66568722     0.36500
C1360       C  0.03756836  0.77981719  0.70964019     0.36500
N1361       N  0.99982136  0.61404466  0.65689438    -0.38400
N1362       N  0.04399079  0.80764049  0.71863226    -0.38400
N1363       N  0.00379808  0.61791725  0.72071668    -0.37800
N1364       N  0.04381579  0.80575032  0.65443569    -0.37800
C1365       C  0.01227392  0.71512256  0.54152599    -0.04500
C1366       C  0.97134559  0.69262986  0.53734119    -0.01600
C1367       C  0.95739704  0.68711207  0.51616451     0.03400
C1368       C  0.98402638  0.70212639  0.49874107    -0.04500
C1369       C  0.02472728  0.72625296  0.50292199    -0.01600
C1370       C  0.03862565  0.73399611  0.52412934     0.03400
C1371       C  0.94314580  0.67390323  0.55460008     0.38100
C1372       C  0.05276188  0.74129063  0.48544946     0.38000
C1373       C  0.08026027  0.76215303  0.52782570     0.36500
C1374       C  0.91534453  0.66606782  0.51241013     0.36500
N1375       N  0.11343291  0.78491970  0.53065228    -0.38400
N1376       N  0.88185013  0.64946491  0.50941616    -0.38400
N1377       N  0.07509779  0.75290716  0.47151227    -0.37800
N1378       N  0.92043915  0.65879684  0.56826213    -0.37800
C1379       C  0.93613836  0.55470532  0.26953255    -0.04500
C1380       C  0.96514926  0.55587370  0.25645054    -0.01600
C1381       C  0.96912784  0.52347854  0.25583417     0.03400
C1382       C  0.94362855  0.48932965  0.26794861    -0.04500
C1383       C  0.91490641  0.48831565  0.28118211    -0.01600
C1384       C  0.91135524  0.52093511  0.28206848     0.03400
C1385       C  0.98954275  0.58947981  0.24266276     0.38100
C1386       C  0.88957857  0.45406459  0.29438059     0.38000
C1387       C  0.88281336  0.52005222  0.29639528     0.36500
C1388       C  0.99834262  0.52468824  0.24192937     0.36500
N1389       N  0.86014845  0.51943051  0.30784876    -0.38400
N1390       N  0.02163221  0.52561520  0.23086802    -0.38400
N1391       N  0.86939399  0.42673741  0.30489359    -0.37800
N1392       N  0.00881578  0.61617875  0.23157776    -0.37800
C1393       C  0.82120120  0.64839377  0.26541231    -0.04500
C1394       C  0.81517553  0.66768553  0.24865092    -0.01600
C1395       C  0.78268476  0.67128868  0.24917156     0.03400
C1396       C  0.75703920  0.65735138  0.26694484    -0.04500
C1397       C  0.76296412  0.63780610  0.28367108    -0.01600
C1398       C  0.79445814  0.63258439  0.28263607     0.03400
C1399       C  0.84214845  0.68347265  0.23071091     0.38100
C1400       C  0.73821919  0.62510462  0.30252012     0.38000
C1401       C  0.80043924  0.61259363  0.29989431     0.36500
C1402       C  0.77504500  0.68829465  0.23099335     0.36500
N1403       N  0.80523590  0.59662187  0.31357623    -0.38400
N1404       N  0.76871052  0.70157695  0.21652025    -0.38400
N1405       N  0.71877428  0.61529019  0.31769367    -0.37800
N1406       N  0.86372490  0.69633780  0.21641447    -0.37800
C1407       C  0.95618278  0.69296147  0.32938371    -0.04500
C1408       C  0.98804890  0.69475994  0.33959625    -0.01600
C1409       C  0.99193837  0.69878961  0.36203393     0.03400
C1410       C  0.96324747  0.69970168  0.37424103    -0.04500
C1411       C  0.93450244  0.70296717  0.36373686    -0.01600
C1412       C  0.93098782  0.69965694  0.34139224     0.03400
C1413       C  0.01451067  0.68868426  0.32731384     0.38100
C1414       C  0.90788006  0.70882064  0.37607664     0.38000
C1415       C  0.90062423  0.70196028  0.33079240     0.36500
C1416       C  0.02400158  0.69960493  0.37257458     0.36500
N1417       N  0.87648237  0.70388677  0.32233594    -0.38400
N1418       N  0.04991477  0.70065627  0.38088919    -0.38400
N1419       N  0.88685998  0.71372994  0.38594862    -0.37800
N1420       N  0.03531258  0.68351811  0.31740446    -0.37800
C1421       C  0.10350719  0.86622318  0.10865847    -0.04500
C1422       C  0.13800353  0.86907352  0.10148911    -0.01600
C1423       C  0.17461516  0.90566549  0.10193463     0.03400
C1424       C  0.17724020  0.93976317  0.10982221    -0.04500
C1425       C  0.14335900  0.93590242  0.11884781    -0.01600
C1426       C  0.10682862  0.89954750  0.11818748     0.03400
C1427       C  0.13610172  0.83465502  0.09328122     0.38100
C1428       C  0.14590387  0.96900044  0.12950652     0.38000
C1429       C  0.07290651  0.89647464  0.12807201     0.36500
C1430       C  0.20918809  0.90796770  0.09370101     0.36500
N1431       N  0.04594509  0.89408889  0.13597502    -0.38400
N1432       N  0.23664050  0.90957308  0.08713150    -0.38400
N1433       N  0.14781373  0.99525312  0.13805679    -0.37800
N1434       N  0.13487123  0.80724757  0.08692284    -0.37800
C1435       C  0.89086297  0.76497060  0.10516752    -0.04500
C1436       C  0.86150607  0.74493972  0.12095933    -0.01600
C1437       C  0.82726134  0.74575621  0.12038946     0.03400
C1438       C  0.82326223  0.76850880  0.10488252    -0.04500
C1439       C  0.85273010  0.78856266  0.08910117    -0.01600
C1440       C  0.88578850  0.78584530  0.08896348     0.03400
C1441       C  0.86745131  0.72534061  0.13834355     0.38100
C1442       C  0.84837851  0.81070444  0.07251736     0.38000
C1443       C  0.91374957  0.80306982  0.07141305     0.36500
C1444       C  0.79648747  0.72371108  0.13615954     0.36500
N1445       N  0.93572895  0.81626390  0.05738766    -0.38400
N1446       N  0.77186668  0.70588589  0.14854088    -0.38400
N1447       N  0.84495289  0.82846712  0.05923125    -0.37800
N1448       N  0.87237566  0.71007821  0.15245275    -0.37800
C1449       C  0.98453849  0.72561501  0.04190865    -0.04500
C1450       C  0.01641932  0.72747318  0.03159227    -0.01600
C1451       C  0.01816414  0.72771671  0.00908269     0.03400
C1452       C  0.98766087  0.72514707  0.99703923    -0.04500
C1453       C  0.95348033  0.71786159  0.00735179    -0.01600
C1454       C  0.95196512  0.71829418  0.02974679     0.03400
C1455       C  0.04867088  0.73205155  0.04398287     0.38100
C1456       C  0.92062978  0.71178489  0.99482119     0.38000
C1457       C  0.91738024  0.71255005  0.04029613     0.36500
C1458       C  0.05235971  0.73318377  0.99829734     0.36500
N1459       N  0.88983913  0.70798058  0.04873436    -0.38400
N1460       N  0.07956162  0.73744140  0.98961744    -0.38400
N1461       N  0.89441599  0.70676093  0.98478842    -0.37800
N1462       N  0.07436224  0.73545238  0.05384168    -0.37800
C1463       C  0.97796935  0.71533183  0.16364166    -0.04500
C1464       C  0.94156289  0.68045994  0.16845233    -0.01600
C1465       C  0.93131120  0.66796586  0.18976959     0.03400
C1466       C  0.95854496  0.68867872  0.20649363    -0.04500
C1467       C  0.99582556  0.72267540  0.20146026    -0.01600
C1468       C  0.00523237  0.73618581  0.18018618     0.03400
C1469       C  0.91346528  0.65842421  0.15158595     0.38100
C1470       C  0.02471464  0.74411269  0.21805208     0.38000
C1471       C  0.04327113  0.77147345  0.17528284     0.36500
C1472       C  0.89137110  0.63558713  0.19442679     0.36500
N1473       N  0.07356096  0.79964582  0.17135099    -0.38400
N1474       N  0.85935097  0.61014428  0.19811718    -0.38400
N1475       N  0.04779431  0.76137848  0.23124217    -0.37800
N1476       N  0.89111116  0.64078564  0.13815338    -0.37800
loop_ 
_geom_bond_atom_site_label_1 
_geom_bond_atom_site_label_2 
_geom_bond_distance 
_geom_bond_site_symmetry_2 
_ccdc_geom_bond_type 
In1           O3   2.251       .  S
In1           O4   2.230       .  S
In1          O12   2.224       .  S
In1           O6   2.254       .  S
In1           O8   2.283       .  S
In1           O9   2.218   1_655  S
In1          O10   2.216       .  S
In1          O13   2.256   1_655  S
C2            O8   1.264       .  A
C2           O10   1.255       .  A
C2         C1449   1.483       .  S
O3           C11   1.262       .  A
O4           C11   1.262       .  A
C5           O12   1.259       .  A
C5            O6   1.266       .  A
C5         C1463   1.485       .  S
C7            O9   1.259       .  A
C7           O13   1.263       .  A
C7         C1421   1.493       .  S
C11        C1435   1.482       .  S
In14         O16   2.225       .  S
In14         O17   2.243       .  S
In14         O25   2.218       .  S
In14         O19   2.259       .  S
In14         O21   2.273       .  S
In14         O22   2.238       .  S
In14         O23   2.221       .  S
In14         O26   2.238       .  S
C15          O21   1.265       .  A
C15          O23   1.258       .  A
C15        C1407   1.485       .  S
O16          C24   1.261       .  A
O17          C24   1.264       .  A
C18          O25   1.260       .  A
C18          O19   1.266       .  A
C18        C1466   1.496       .  S
C20          O22   1.263       .  A
C20          O26   1.262       .  A
C20        C1379   1.487       .  S
C24        C1393   1.479       .  S
In27         O29   2.252       .  S
In27         O30   2.228       .  S
In27         O38   2.230       .  S
In27         O32   2.274       .  S
In27         O34   2.289       .  S
In27         O35   2.219       .  S
In27         O36   2.218       .  S
In27         O39   2.256       .  S
C28          O34   1.265       .  A
C28          O36   1.256       .  A
C28        C1351   1.487       .  S
O29          C37   1.265       .  A
O30          C37   1.261       .  A
C31          O38   1.258       .  A
C31          O32   1.266       .  A
C31        C1365   1.505       .  S
C33          O35   1.258       .  A
C33          O39   1.261       .  A
C33        C1337   1.480       .  S
C37        C1323   1.488       .  S
In40         O42   2.237       .  S
In40         O43   2.234       .  S
In40         O51   2.218       .  S
In40         O45   2.267       .  S
In40         O47   2.285       .  S
In40         O48   2.219       .  S
In40         O49   2.209       .  S
In40         O52   2.235       .  S
C41          O47   1.269       .  A
C41          O49   1.259       .  A
C41        C1410   1.486       .  S
O42          C50   1.262       .  A
O43          C50   1.262       .  A
C44          O51   1.258       .  A
C44          O45   1.269       .  A
C44        C1368   1.497       .  S
C46          O48   1.264       .  A
C46          O52   1.264       .  A
C46        C1312   1.481       .  S
C50        C1295   1.479       .  S
In53         O55   2.256       .  S
In53         O56   2.218       .  S
In53         O64   2.214   1_455  S
In53         O58   2.255       .  S
In53         O60   2.267   1_455  S
In53         O61   2.219   1_455  S
In53         O62   2.212       .  S
In53         O65   2.245   1_455  S
C54          O60   1.264       .  A
C54          O62   1.258   1_655  A
C54        C1452   1.475       .  S
O55          C63   1.263       .  A
O56          C63   1.260       .  A
C57          O64   1.258       .  A
C57          O58   1.265   1_655  A
C57        C1281   1.488   1_655  S
C59          O61   1.260       .  A
C59          O65   1.263       .  A
C59        C1267   1.485       .  S
C63        C1253   1.487       .  S
In66         O68   2.254       .  S
In66         O69   2.218       .  S
In66         O77   2.218       .  S
In66         O71   2.251       .  S
In66         O73   2.282       .  S
In66         O74   2.225       .  S
In66         O75   2.212       .  S
In66         O78   2.240       .  S
C67          O73   1.265       .  A
C67          O75   1.257       .  A
C67        C1354   1.483       .  S
O68          C76   1.263       .  A
O69          C76   1.260       .  A
C70          O77   1.258       .  A
C70          O71   1.265       .  A
C70        C1284   1.492       .  S
C72          O74   1.262       .  A
C72          O78   1.263       .  A
C72        C1239   1.484       .  S
C76        C1225   1.484       .  S
In79         O81   2.243       .  S
In79         O82   2.231       .  S
In79         O90   2.223       .  S
In79         O84   2.259       .  S
In79         O86   2.278       .  S
In79         O87   2.231       .  S
In79         O88   2.213       .  S
In79         O91   2.247       .  S
C80          O86   1.265       .  A
C80          O88   1.257       .  A
C80        C1200   1.481       .  S
O81          C89   1.262       .  A
O82          C89   1.261       .  A
C83          O90   1.260       .  A
C83          O84   1.266       .  A
C83        C1211   1.495       .  S
C85          O87   1.262       .  A
C85          O91   1.264       .  A
C85        C1438   1.485       .  S
C89        C1183   1.481       .  S
In92         O94   2.243       .  S
In92         O95   2.215       .  S
In92        O103   2.213       .  S
In92         O97   2.285       .  S
In92         O99   2.266       .  S
In92        O100   2.239       .  S
In92        O101   2.250       .  S
In92        O104   2.229       .  S
C93          O99   1.260       .  A
C93         O101   1.257       .  A
C93        C1169   1.487       .  S
O94         C102   1.266       .  A
O95         C102   1.261       .  A
C96         O103   1.255       .  A
C96          O97   1.266       .  A
C96        C1214   1.493       .  S
C98         O100   1.261       .  A
C98         O104   1.262       .  A
C98        C1396   1.483       .  S
C102       C1155   1.487       .  S
In105       O107   2.242       .  S
In105       O108   2.218       .  S
In105       O116   2.212       .  S
In105       O110   2.267       .  S
In105       O112   2.276       .  S
In105       O113   2.218       .  S
In105       O114   2.216       .  S
In105       O117   2.259       .  S
C106        O112   1.265       .  A
C106        O114   1.256       .  A
C106       C1172   1.489       .  S
O107        C115   1.263       .  A
O108        C115   1.261       .  A
C109        O116   1.258       .  A
C109        O110   1.265       .  A
C109       C1141   1.488       .  S
C111        O113   1.259       .  A
C111        O117   1.263       .  A
C111       C1130   1.487       .  S
C115       C1309   1.480       .  S
In118       O120   2.255       .  S
In118       O121   2.235       .  S
In118       O129   2.216       .  S
In118       O123   2.263       .  S
In118       O125   2.277       .  S
In118       O126   2.214       .  S
In118       O127   2.212       .  S
In118       O130   2.257       .  S
C119        O125   1.265       .  A
C119        O127   1.256       .  A
C119       C1113   1.485       .  S
O120        C128   1.262       .  A
O121        C128   1.259       .  A
C122        O129   1.258       .  A
C122        O123   1.264       .  A
C122       C1144   1.491       .  S
C124        O126   1.261       .  A
C124        O130   1.263       .  A
C124       C1085   1.481       .  S
C128       C1102   1.489       .  S
In131       O133   2.240       .  S
In131       O134   2.216       .  S
In131       O142   2.218       .  S
In131       O136   2.254       .  S
In131       O138   2.275       .  S
In131       O139   2.236       .  S
In131       O140   2.210       .  S
In131       O143   2.243       .  S
C132        O138   1.266       .  A
C132        O140   1.258       .  A
C132       C1197   1.481       .  S
O133        C141   1.265       .  A
O134        C141   1.263       .  A
C135        O142   1.259       .  A
C135        O136   1.267       .  A
C135       C1071   1.487       .  S
C137        O139   1.262       .  A
C137        O143   1.261       .  A
C137       C1057   1.484       .  S
C141       C1270   1.485       .  S
In144       O146   2.240       .  S
In144       O147   2.215       .  S
In144       O155   2.213       .  S
In144       O149   2.269       .  S
In144       O151   2.283       .  S
In144       O152   2.231       .  S
In144       O153   2.211       .  S
In144       O156   2.248       .  S
C145        O151   1.266       .  A
C145        O153   1.256       .  A
C145       C1116   1.488       .  S
O146        C154   1.262       .  A
O147        C154   1.262       .  A
C148        O155   1.258       .  A
C148        O149   1.267       .  A
C148       C1074   1.497       .  S
C150        O152   1.260       .  A
C150        O156   1.264       .  A
C150       C1046   1.481       .  S
C154       C1032   1.487       .  S
In157       O159   2.255       .  S
In157       O160   2.218       .  S
In157       O168   2.223       .  S
In157       O162   2.256       .  S
In157       O164   2.276       .  S
In157       O165   2.237       .  S
In157       O166   2.210       .  S
In157       O169   2.242   1_545  S
C158        O164   1.265       .  A
C158        O166   1.257       .  A
C158       C1001   1.484       .  S
O159        C167   1.263       .  A
O160        C167   1.263       .  A
C161        O168   1.260       .  A
C161        O162   1.266       .  A
C161       C1018   1.497       .  S
C163        O165   1.260   1_565  A
C163        O169   1.261       .  A
C163       C1186   1.480       .  S
C167        C987   1.495       .  S
In170       O172   2.242       .  S
In170       O173   2.227       .  S
In170       O181   2.216       .  S
In170       O175   2.262       .  S
In170       O177   2.278       .  S
In170       O178   2.230       .  S
In170       O179   2.223       .  S
In170       O182   2.247       .  S
C171        O177   1.266       .  A
C171        O179   1.258       .  A
C171        C973   1.492       .  S
O172        C180   1.263       .  A
O173        C180   1.263       .  A
C174        O181   1.258       .  A
C174        O175   1.267       .  A
C174       C1015   1.500       .  S
C176        O178   1.261       .  A
C176        O182   1.262       .  A
C176        C959   1.483       .  S
C180        C945   1.491       .  S
In183       O185   2.247       .  S
In183       O186   2.217       .  S
In183       O194   2.210       .  S
In183       O188   2.277       .  S
In183       O190   2.289       .  S
In183       O191   2.214       .  S
In183       O192   2.216       .  S
In183       O195   2.255       .  S
C184        O190   1.267       .  A
C184        O192   1.257       .  A
C184        C976   1.489       .  S
O185        C193   1.263       .  A
O186        C193   1.261       .  A
C187        O194   1.257       .  A
C187        O188   1.269       .  A
C187        C931   1.486       .  S
C189        O191   1.261       .  A
C189        O195   1.264       .  A
C189        C903   1.485       .  S
C193        C917   1.486       .  S
In196       O198   2.250       .  S
In196       O199   2.223   1_545  S
In196       O207   2.214   1_545  S
In196       O201   2.278       .  S
In196       O203   2.281       .  S
In196       O204   2.236   1_545  S
In196       O205   2.200   1_545  S
In196       O208   2.240   1_545  S
C197        O203   1.267       .  A
C197        O205   1.258   1_545  A
C197        C892   1.483       .  S
O198        C206   1.263       .  A
O199        C206   1.261   1_565  A
C200        O207   1.258   1_545  A
C200        O201   1.266       .  A
C200        C934   1.485       .  S
C202        O204   1.262       .  A
C202        O208   1.263       .  A
C202       C1099   1.495       .  S
C206        C878   1.484       .  S
In209       O211   2.248   1_545  S
In209       O212   2.228       .  S
In209       O220   2.218       .  S
In209       O214   2.252       .  S
In209       O216   2.278       .  S
In209       O217   2.232       .  S
In209       O218   2.216       .  S
In209       O221   2.233       .  S
C210        O216   1.264       .  A
C210        O218   1.257       .  A
C210       C1004   1.486       .  S
O211        C219   1.262       .  A
O212        C219   1.260   1_545  A
C213        O220   1.260       .  A
C213        O214   1.266       .  A
C213        C864   1.484       .  S
C215        O217   1.264       .  A
C215        O221   1.260       .  A
C215        C847   1.491       .  S
C219       C1060   1.482       .  S
In222       O224   2.238   1_545  S
In222       O225   2.229   1_545  S
In222       O233   2.211   1_545  S
In222       O227   2.262       .  S
In222       O229   2.284       .  S
In222       O230   2.229   1_545  S
In222       O231   2.206   1_545  S
In222       O234   2.250       .  S
C223        O229   1.266       .  A
C223        O231   1.257   1_545  A
C223        C889   1.482       .  S
O224        C232   1.264       .  A
O225        C232   1.263       .  A
C226        O233   1.258   1_545  A
C226        O227   1.268       .  A
C226        C861   1.495       .  S
C228        O230   1.260   1_545  A
C228        O234   1.262       .  A
C228        C833   1.487       .  S
C232       C1043   1.482       .  S
In235       O237   2.248   1_545  S
In235       O238   2.219       .  S
In235       O246   2.217       .  S
In235       O240   2.257       .  S
In235       O242   2.283       .  S
In235       O243   2.227       .  S
In235       O244   2.198       .  S
In235       O247   2.260       .  S
C236        O242   1.266       .  A
C236        O244   1.257       .  A
C236        C808   1.484       .  S
O237        C245   1.263       .  A
O238        C245   1.262   1_545  A
C239        O246   1.259       .  A
C239        O240   1.266       .  A
C239        C822   1.489       .  S
C241        O243   1.259       .  A
C241        O247   1.263       .  A
C241        C791   1.487       .  S
C245       C1424   1.494       .  S
In248       O250   2.248       .  S
In248       O251   2.227       .  S
In248       O259   2.210       .  S
In248       O253   2.269       .  S
In248       O255   2.281       .  S
In248       O256   2.224       .  S
In248       O257   2.192       .  S
In248       O260   2.252       .  S
C249        O255   1.268       .  A
C249        O257   1.259       .  A
C249        C777   1.483       .  S
O250        C258   1.264       .  A
O251        C258   1.263       .  A
C252        O259   1.258       .  A
C252        O253   1.268       .  A
C252        C819   1.498       .  S
C254        O256   1.262       .  A
C254        O260   1.263       .  A
C254        C766   1.484       .  S
C258        C962   1.489       .  S
In261       O263   2.244       .  S
In261       O264   2.239       .  S
In261       O272   2.212       .  S
In261       O266   2.265       .  S
In261       O268   2.271       .  S
In261       O269   2.223       .  S
In261       O270   2.212       .  S
In261       O273   2.233       .  S
C262        O268   1.268       .  A
C262        O270   1.260       .  A
C262        C780   1.488       .  S
O263        C271   1.263       .  A
O264        C271   1.263       .  A
C265        O272   1.259       .  A
C265        O266   1.268       .  A
C265        C749   1.492       .  S
C267        O269   1.265       .  A
C267        O273   1.263       .  A
C267        C920   1.485       .  S
C271        C735   1.490       .  S
In274       O276   2.242   1_545  S
In274       O277   2.226   1_545  S
In274       O285   2.223       .  S
In274       O279   2.268       .  S
In274       O281   2.279       .  S
In274       O282   2.224   1_545  S
In274       O283   2.205   1_545  S
In274       O286   2.249       .  S
C275        O281   1.266       .  A
C275        O283   1.257   1_545  A
C275        C724   1.483       .  S
O276        C284   1.263       .  A
O277        C284   1.262       .  A
C278        O285   1.258       .  A
C278        O279   1.266       .  A
C278        C752   1.496       .  S
C280        O282   1.261   1_545  A
C280        O286   1.263       .  A
C280        C875   1.483       .  S
C284       C1340   1.482       .  S
In287       O289   2.247       .  S
In287       O290   2.228   1_545  S
In287       O298   2.218       .  S
In287       O292   2.253       .  S
In287       O294   2.277       .  S
In287       O295   2.219   1_545  S
In287       O296   2.203   1_545  S
In287       O299   2.255   1_545  S
C288        O294   1.265       .  A
C288        O296   1.257   1_545  A
C288        C721   1.478       .  S
O289        C297   1.262       .  A
O290        C297   1.260   1_565  A
C291        O298   1.259       .  A
C291        O292   1.265       .  A
C291        C707   1.491       .  S
C293        O295   1.262       .  A
C293        O299   1.263       .  A
C293       C1228   1.483       .  S
C297        C836   1.489       .  S
In300       O302   2.239       .  S
In300       O303   2.233       .  S
In300       O311   2.206       .  S
In300       O305   2.258       .  S
In300       O307   2.270       .  S
In300       O308   2.226       .  S
In300       O309   2.211       .  S
In300       O312   2.242   1_545  S
C301        O307   1.265       .  A
C301        O309   1.258       .  A
C301        C805   1.484       .  S
O302        C310   1.262       .  A
O303        C310   1.261       .  A
C304        O311   1.259       .  A
C304        O305   1.265       .  A
C304        C710   1.484       .  S
C306        O308   1.262   1_565  A
C306        O312   1.262       .  A
C306       C1256   1.488       .  S
C310        C693   1.487       .  S
In313       O315   2.238       .  S
In313       O316   2.224       .  S
In313       O324   2.206       .  S
In313       O318   2.245       .  S
In313       O320   2.275       .  S
In313       O321   2.228       .  S
In313       O322   2.200       .  S
In313       O325   2.236       .  S
C314        O320   1.268       .  A
C314        O322   1.259       .  A
C314        C665   1.485       .  S
O315        C323   1.263       .  A
O316        C323   1.264       .  A
C317        O324   1.260       .  A
C317        O318   1.269       .  A
C317        C679   1.489       .  S
C319        O321   1.264       .  A
C319        O325   1.263       .  A
C319        C654   1.493       .  S
C323        C794   1.486       .  S
In326       O328   2.248       .  S
In326       O329   2.232       .  S
In326       O337   2.197       .  S
In326       O331   2.258       .  S
In326       O333   2.266       .  S
In326       O334   2.231       .  S
In326       O335   2.195       .  S
In326       O338   2.244       .  S
C327        O333   1.266       .  A
C327        O335   1.259       .  A
C327        C637   1.481       .  S
O328        C336   1.263       .  A
O329        C336   1.262       .  A
C330        O337   1.258       .  A
C330        O331   1.266       .  A
C330        C682   1.483       .  S
C332        O334   1.264       .  A
C332        O338   1.262       .  A
C332       C1158   1.491       .  S
C336        C763   1.486       .  S
In339       O341   2.257       .  S
In339       O342   2.216       .  S
In339       O350   2.207       .  S
In339       O344   2.266       .  S
In339       O346   2.266       .  S
In339       O347   2.233       .  S
In339       O348   2.196       .  S
In339       O351   2.254       .  S
C340        O346   1.267       .  A
C340        O348   1.258       .  A
C340        C640   1.480       .  S
O341        C349   1.263       .  A
O342        C349   1.263       .  A
C343        O350   1.258       .  A
C343        O344   1.266       .  A
C343        C623   1.493       .  S
C345        O347   1.261       .  A
C345        O351   1.263       .  A
C345        C738   1.491       .  S
C349       C1127   1.489       .  S
In352       O354   2.251       .  S
In352       O355   2.218       .  S
In352       O363   2.232       .  S
In352       O357   2.247       .  S
In352       O359   2.281       .  S
In352       O360   2.212       .  S
In352       O361   2.211       .  S
In352       O364   2.254       .  S
C353        O359   1.264       .  A
C353        O361   1.257       .  A
C353        C612   1.483       .  S
O354        C362   1.264       .  A
O355        C362   1.261       .  A
C356        O363   1.258       .  A
C356        O357   1.265       .  A
C356        C626   1.492       .  S
C358        O360   1.258       .  A
C358        O364   1.261       .  A
C358        C598   1.482       .  S
C362       C1088   1.482       .  S
In365       O367   2.251       .  S
In365       O368   2.215       .  S
In365       O376   2.228       .  S
In365       O370   2.267       .  S
In365       O372   2.285       .  S
In365       O373   2.216       .  S
In365       O374   2.206       .  S
In365       O377   2.244       .  S
C366        O372   1.266       .  A
C366        O374   1.257       .  A
C366        C609   1.488       .  S
O367        C375   1.264       .  A
O368        C375   1.260       .  A
C369        O376   1.258       .  A
C369        O370   1.266       .  A
C369        C581   1.498       .  S
C371        O373   1.260       .  A
C371        O377   1.263       .  A
C371       C1029   1.488       .  S
C375        C567   1.480       .  S
In378       O380   2.240       .  S
In378       O381   2.228       .  S
In378       O389   2.221       .  S
In378       O383   2.264       .  S
In378       O385   2.286       .  S
In378       O386   2.236       .  S
In378       O387   2.202       .  S
In378       O390   2.240       .  S
C379        O385   1.267       .  A
C379        O387   1.258       .  A
C379        C668   1.484       .  S
O380        C388   1.262       .  A
O381        C388   1.263       .  A
C382        O389   1.259       .  A
C382        O383   1.267       .  A
C382        C584   1.492       .  S
C384        O386   1.261       .  A
C384        O390   1.263       .  A
C384        C696   1.489       .  S
C388        C556   1.483       .  S
In391       O393   2.251       .  S
In391       O394   2.239       .  S
In391       O402   2.211       .  S
In391       O396   2.273       .  S
In391       O398   2.290       .  S
In391       O399   2.214   1_455  S
In391       O400   2.224   1_455  S
In391       O403   2.259   1_455  S
C392        O398   1.265       .  A
C392        O400   1.256   1_455  A
C392        C525   1.491       .  S
O393        C401   1.261       .  A
O394        C401   1.260       .  A
C395        O402   1.258       .  A
C395        O396   1.267       .  A
C395        C539   1.496       .  S
C397        O399   1.261       .  A
C397        O403   1.266       .  A
C397        C990   1.495       .  S
C401        C651   1.496       .  S
In404       O406   2.250       .  S
In404       O407   2.233       .  S
In404       O415   2.225       .  S
In404       O409   2.264       .  S
In404       O411   2.277       .  S
In404       O412   2.222       .  S
In404       O413   2.228       .  S
In404       O416   2.252       .  S
C405        O411   1.265       .  A
C405        O413   1.258       .  A
C405        C511   1.490       .  S
O406        C414   1.262       .  A
O407        C414   1.260       .  A
C408        O415   1.259       .  A
C408        O409   1.265       .  A
C408        C542   1.501   1_655  S
C410        O412   1.261       .  A
C410        O416   1.263       .  A
C410        C948   1.492       .  S
C414       C1382   1.485       .  S
In417       O419   2.245       .  S
In417       O420   2.224       .  S
In417       O428   2.224       .  S
In417       O422   2.265       .  S
In417       O424   2.282       .  S
In417       O425   2.237       .  S
In417       O426   2.209       .  S
In417       O429   2.241       .  S
C418        O424   1.267       .  A
C418        O426   1.258       .  A
C418        C486   1.483       .  S
O419        C427   1.263       .  A
O420        C427   1.261       .  A
C421        O428   1.259       .  A
C421        O422   1.268       .  A
C421        C500   1.499       .  S
C423        O425   1.263       .  A
C423        O429   1.264       .  A
C423       C1326   1.489       .  S
C427        C595   1.484       .  S
In430       O432   2.247       .  S
In430       O433   2.221       .  S
In430       O441   2.212       .  S
In430       O435   2.285       .  S
In430       O437   2.284       .  S
In430       O438   2.220       .  S
In430       O439   2.210       .  S
In430       O442   2.256       .  S
C431        O437   1.267       .  A
C431        O439   1.257       .  A
C431        C514   1.487       .  S
O432        C440   1.263       .  A
O433        C440   1.260       .  A
C434        O441   1.256       .  A
C434        O435   1.266       .  A
C434        C497   1.493   1_655  S
C436        O438   1.258       .  A
C436        O442   1.264       .  A
C436       C1298   1.481       .  S
C440        C906   1.483       .  S
In443       O445   2.227       .  S
In443       O446   2.261       .  S
In443       O454   2.241       .  S
In443       O448   2.224       .  S
In443       O450   2.234       .  S
In443       O451   2.274       .  S
In443       O452   2.250       .  S
In443       O455   2.205       .  S
C444        O450   1.260       .  A
C444        O452   1.261       .  A
C444        C570   1.482       .  S
O445        C453   1.258       .  A
O446        C453   1.265       .  A
C447        O454   1.263       .  A
C447        O448   1.263       .  A
C447       C1242   1.487       .  S
C449        O451   1.266       .  A
C449        O455   1.258       .  A
C449        C483   1.483       .  S
C453        C469   1.489       .  S
In456       O458   2.238   1_455  S
In456       O459   2.231   1_455  S
In456       O467   2.214       .  S
In456       O461   2.271       .  S
In456       O463   2.286       .  S
In456       O464   2.221       .  S
In456       O465   2.226   1_455  S
In456       O468   2.251       .  S
C457        O463   1.264       .  A
C457        O465   1.257   1_455  A
C457        C528   1.491       .  S
O458        C466   1.265       .  A
O459        C466   1.260       .  A
C460        O467   1.258       .  A
C460        O461   1.266       .  A
C460        C472   1.489       .  S
C462        O464   1.260       .  A
C462        O468   1.262       .  A
C462        C553   1.482       .  S
C466        C850   1.494       .  S
C469        C470   1.412       .  A
C469        C474   1.418       .  A
C470        C471   1.410       .  A
C470        C475   1.451   1_455  S
C471        C472   1.416       .  A
C471        C478   1.453   1_455  S
C472        C473   1.411       .  A
C473        C474   1.413       .  A
C473        C476   1.450       .  S
C474        C477   1.452       .  S
C475        N482   1.157       .  T
C476        N481   1.157       .  T
C477        N479   1.158       .  T
C478        N480   1.158       .  T
C483        C484   1.412       .  A
C483        C488   1.414       .  A
C484        C485   1.406       .  A
C484        C489   1.453       .  S
C485        C486   1.412       .  A
C485        C492   1.452       .  S
C486        C487   1.413       .  A
C487        C488   1.417       .  A
C487        C490   1.448       .  S
C488        C491   1.450       .  S
C489        N496   1.158       .  T
C490        N495   1.157       .  T
C491        N493   1.157       .  T
C492        N494   1.157       .  T
C497        C498   1.411       .  A
C497        C502   1.417   1_455  A
C498        C499   1.415       .  A
C498        C503   1.452       .  S
C499        C500   1.422       .  A
C499        C506   1.450       .  S
C500        C501   1.415   1_455  A
C501        C502   1.412       .  A
C501        C504   1.452       .  S
C502        C505   1.452       .  S
C503        N510   1.157       .  T
C504        N509   1.157       .  T
C505        N507   1.158       .  T
C506        N508   1.158       .  T
C511        C512   1.414       .  A
C511        C516   1.416   1_655  A
C512        C513   1.409       .  A
C512        C517   1.452       .  S
C513        C514   1.414       .  A
C513        C520   1.453       .  S
C514        C515   1.412   1_655  A
C515        C516   1.417       .  A
C515        C518   1.449       .  S
C516        C519   1.450       .  S
C517        N524   1.158       .  T
C518        N523   1.157       .  T
C519        N521   1.157       .  T
C520        N522   1.158       .  T
C525        C526   1.413   1_455  A
C525        C530   1.414       .  A
C526        C527   1.409       .  A
C526        C531   1.452       .  S
C527        C528   1.412   1_654  A
C527        C534   1.451   1_554  S
C528        C529   1.415   1_556  A
C529        C530   1.419       .  A
C529        C532   1.450   1_554  S
C530        C533   1.449       .  S
C531        N538   1.157       .  T
C532        N537   1.158       .  T
C533        N535   1.157       .  T
C534        N536   1.157       .  T
C539        C540   1.414   1_455  A
C539        C544   1.417       .  A
C540        C541   1.414       .  A
C540        C545   1.450       .  S
C541        C542   1.420   1_655  A
C541        C548   1.453       .  S
C542        C543   1.417       .  A
C543        C544   1.412       .  A
C543        C546   1.450       .  S
C544        C547   1.454       .  S
C545        N552   1.158       .  T
C546        N551   1.158       .  T
C547        N549   1.157       .  T
C548        N550   1.157       .  T
C553        C554   1.413       .  A
C553        C558   1.413       .  A
C554        C555   1.412       .  A
C554        C559   1.451       .  S
C555        C556   1.415       .  A
C555        C562   1.452       .  S
C556        C557   1.413       .  A
C557        C558   1.407       .  A
C557        C560   1.452       .  S
C558        C561   1.453       .  S
C559        N566   1.157       .  T
C560        N565   1.157       .  T
C561        N563   1.157       .  T
C562        N564   1.158       .  T
C567        C568   1.412       .  A
C567        C572   1.413       .  A
C568        C569   1.412       .  A
C568        C573   1.452       .  S
C569        C570   1.414       .  A
C569        C576   1.451       .  S
C570        C571   1.413       .  A
C571        C572   1.407       .  A
C571        C574   1.452       .  S
C572        C575   1.453       .  S
C573        N580   1.157       .  T
C574        N579   1.157       .  T
C575        N577   1.157       .  T
C576        N578   1.157       .  T
C581        C582   1.415       .  A
C581        C586   1.422       .  A
C582        C583   1.413       .  A
C582        C587   1.451       .  S
C583        C584   1.416       .  A
C583        C590   1.452       .  S
C584        C585   1.412       .  A
C585        C586   1.414       .  A
C585        C588   1.452       .  S
C586        C589   1.453       .  S
C587        N594   1.157       .  T
C588        N593   1.158       .  T
C589        N591   1.158       .  T
C590        N592   1.157       .  T
C595        C596   1.414       .  A
C595        C600   1.414       .  A
C596        C597   1.406       .  A
C596        C601   1.451       .  S
C597        C598   1.414       .  A
C597        C604   1.454       .  S
C598        C599   1.413       .  A
C599        C600   1.412       .  A
C599        C602   1.451       .  S
C600        C603   1.451       .  S
C601        N608   1.158       .  T
C602        N607   1.158       .  T
C603        N605   1.156       .  T
C604        N606   1.156       .  T
C609        C610   1.415       .  A
C609        C614   1.414       .  A
C610        C611   1.417       .  A
C610        C615   1.449       .  S
C611        C612   1.413       .  A
C611        C618   1.449       .  S
C612        C613   1.411       .  A
C613        C614   1.406       .  A
C613        C616   1.453       .  S
C614        C617   1.452       .  S
C615        N622   1.157       .  T
C616        N621   1.158       .  T
C617        N619   1.157       .  T
C618        N620   1.157       .  T
C623        C624   1.416       .  A
C623        C628   1.415       .  A
C624        C625   1.408       .  A
C624        C629   1.452       .  S
C625        C626   1.414       .  A
C625        C632   1.452       .  S
C626        C627   1.419       .  A
C627        C628   1.414       .  A
C627        C630   1.452       .  S
C628        C631   1.451       .  S
C629        N636   1.157       .  T
C630        N635   1.157       .  T
C631        N633   1.158       .  T
C632        N634   1.158       .  T
C637        C638   1.412       .  A
C637        C642   1.413       .  A
C638        C639   1.402       .  A
C638        C643   1.453       .  S
C639        C640   1.412       .  A
C639        C646   1.452       .  S
C640        C641   1.413       .  A
C641        C642   1.415       .  A
C641        C644   1.450       .  S
C642        C645   1.449       .  S
C643        N650   1.157       .  T
C644        N649   1.157       .  T
C645        N647   1.157       .  T
C646        N648   1.157       .  T
C651        C652   1.418       .  A
C651        C656   1.417       .  A
C652        C653   1.413       .  A
C652        C657   1.450       .  S
C653        C654   1.416       .  A
C653        C660   1.453       .  S
C654        C655   1.415       .  A
C655        C656   1.411       .  A
C655        C658   1.452       .  S
C656        C659   1.453       .  S
C657        N664   1.159       .  T
C658        N663   1.159       .  T
C659        N661   1.156       .  T
C660        N662   1.156       .  T
C665        C666   1.415       .  A
C665        C670   1.412       .  A
C666        C667   1.418       .  A
C666        C671   1.449       .  S
C667        C668   1.412   1_554  A
C667        C674   1.449   1_554  S
C668        C669   1.411   1_556  A
C669        C670   1.405       .  A
C669        C672   1.452   1_554  S
C670        C673   1.453       .  S
C671        N678   1.158       .  T
C672        N677   1.157       .  T
C673        N675   1.157       .  T
C674        N676   1.157       .  T
C679        C680   1.413       .  A
C679        C684   1.421       .  A
C680        C681   1.408       .  A
C680        C685   1.451       .  S
C681        C682   1.415       .  A
C681        C688   1.453       .  S
C682        C683   1.410       .  A
C683        C684   1.411       .  A
C683        C686   1.452       .  S
C684        C687   1.452       .  S
C685        N692   1.157       .  T
C686        N691   1.157       .  T
C687        N689   1.158       .  T
C688        N690   1.158       .  T
C693        C694   1.414       .  A
C693        C698   1.415       .  A
C694        C695   1.410       .  A
C694        C699   1.452       .  S
C695        C696   1.415       .  A
C695        C702   1.451       .  S
C696        C697   1.416       .  A
C697        C698   1.411       .  A
C697        C700   1.452       .  S
C698        C701   1.453       .  S
C699        N706   1.157       .  T
C700        N705   1.158       .  T
C701        N703   1.157       .  T
C702        N704   1.157       .  T
C707        C708   1.416       .  A
C707        C712   1.417       .  A
C708        C709   1.409       .  A
C708        C713   1.449       .  S
C709        C710   1.414       .  A
C709        C716   1.454       .  S
C710        C711   1.412       .  A
C711        C712   1.410       .  A
C711        C714   1.450       .  S
C712        C715   1.453       .  S
C713        N720   1.159       .  T
C714        N719   1.159       .  T
C715        N717   1.156       .  T
C716        N718   1.156       .  T
C721        C722   1.410       .  A
C721        C726   1.410       .  A
C722        C723   1.416       .  A
C722        C727   1.449       .  S
C723        C724   1.414       .  A
C723        C730   1.449       .  S
C724        C725   1.413       .  A
C725        C726   1.405       .  A
C725        C728   1.453   1_545  S
C726        C729   1.452   1_545  S
C727        N734   1.157       .  T
C728        N733   1.158       .  T
C729        N731   1.157       .  T
C730        N732   1.157       .  T
C735        C736   1.415       .  A
C735        C740   1.415       .  A
C736        C737   1.411       .  A
C736        C741   1.452       .  S
C737        C738   1.415       .  A
C737        C744   1.452       .  S
C738        C739   1.415       .  A
C739        C740   1.414       .  A
C739        C742   1.452       .  S
C740        C743   1.452       .  S
C741        N748   1.157       .  T
C742        N747   1.157       .  T
C743        N745   1.157       .  T
C744        N746   1.157       .  T
C749        C750   1.413       .  A
C749        C754   1.417       .  A
C750        C751   1.413       .  A
C750        C755   1.452       .  S
C751        C752   1.420       .  A
C751        C758   1.452   1_545  S
C752        C753   1.414       .  A
C753        C754   1.412       .  A
C753        C756   1.451       .  S
C754        C757   1.452       .  S
C755        N762   1.157   1_545  T
C756        N761   1.157       .  T
C757        N759   1.157       .  T
C758        N760   1.158       .  T
C763        C764   1.415       .  A
C763        C768   1.414       .  A
C764        C765   1.414       .  A
C764        C769   1.451       .  S
C765        C766   1.414       .  A
C765        C772   1.451       .  S
C766        C767   1.412       .  A
C767        C768   1.409       .  A
C767        C770   1.453       .  S
C768        C771   1.452       .  S
C769        N776   1.157       .  T
C770        N775   1.157       .  T
C771        N773   1.157       .  T
C772        N774   1.157       .  T
C777        C778   1.412       .  A
C777        C782   1.410       .  A
C778        C779   1.418       .  A
C778        C783   1.449       .  S
C779        C780   1.415       .  A
C779        C786   1.449       .  S
C780        C781   1.415       .  A
C781        C782   1.405       .  A
C781        C784   1.451       .  S
C782        C785   1.454       .  S
C783        N790   1.157       .  T
C784        N789   1.157       .  T
C785        N787   1.157       .  T
C786        N788   1.157       .  T
C791        C792   1.414       .  A
C791        C796   1.415       .  A
C792        C793   1.413       .  A
C792        C797   1.452       .  S
C793        C794   1.416       .  A
C793        C800   1.452       .  S
C794        C795   1.413       .  A
C795        C796   1.408       .  A
C795        C798   1.453       .  S
C796        C799   1.452       .  S
C797        N804   1.157       .  T
C798        N803   1.157       .  T
C799        N801   1.157       .  T
C800        N802   1.158       .  T
C805        C806   1.413   1_556  A
C805        C810   1.414   1_556  A
C806        C807   1.405       .  A
C806        C811   1.452   1_544  S
C807        C808   1.412       .  A
C807        C814   1.453   1_545  S
C808        C809   1.413       .  A
C809        C810   1.417       .  A
C809        C812   1.449       .  S
C810        C813   1.450   1_554  S
C811        N818   1.157       .  T
C812        N817   1.158       .  T
C813        N815   1.157       .  T
C814        N816   1.157       .  T
C819        C820   1.422       .  A
C819        C824   1.416       .  A
C820        C821   1.412       .  A
C820        C825   1.452       .  S
C821        C822   1.410       .  A
C821        C828   1.452       .  S
C822        C823   1.416       .  A
C823        C824   1.413       .  A
C823        C826   1.453       .  S
C824        C827   1.450       .  S
C825        N832   1.157       .  T
C826        N831   1.157   1_545  T
C827        N829   1.158   1_545  T
C828        N830   1.158       .  T
C833        C834   1.415   1_545  A
C833        C838   1.413       .  A
C834        C835   1.409       .  A
C834        C839   1.451       .  S
C835        C836   1.415   1_565  A
C835        C842   1.454       .  S
C836        C837   1.416       .  A
C837        C838   1.412       .  A
C837        C840   1.450       .  S
C838        C841   1.452       .  S
C839        N846   1.158       .  T
C840        N845   1.158       .  T
C841        N843   1.156       .  T
C842        N844   1.156       .  T
C847        C848   1.412       .  A
C847        C852   1.419       .  A
C848        C849   1.411       .  A
C848        C853   1.458       .  S
C849        C850   1.421       .  A
C849        C856   1.447       .  S
C850        C851   1.414       .  A
C851        C852   1.411       .  A
C851        C854   1.457       .  S
C852        C855   1.447       .  S
C853        N860   1.152       .  T
C854        N859   1.152       .  T
C855        N857   1.163       .  T
C856        N858   1.163       .  T
C861        C862   1.421       .  A
C861        C866   1.416       .  A
C862        C863   1.410       .  A
C862        C867   1.450   1_545  S
C863        C864   1.408       .  A
C863        C870   1.452   1_545  S
C864        C865   1.415       .  A
C865        C866   1.412       .  A
C865        C868   1.452       .  S
C866        C869   1.451       .  S
C867        N874   1.158       .  T
C868        N873   1.158       .  T
C869        N871   1.157       .  T
C870        N872   1.157       .  T
C875        C876   1.413       .  A
C875        C880   1.413   1_545  A
C876        C877   1.412       .  A
C876        C881   1.451       .  S
C877        C878   1.414       .  A
C877        C884   1.451       .  S
C878        C879   1.414   1_545  A
C879        C880   1.408       .  A
C879        C882   1.453       .  S
C880        C883   1.453       .  S
C881        N888   1.157       .  T
C882        N887   1.157       .  T
C883        N885   1.157       .  T
C884        N886   1.157       .  T
C889        C890   1.411       .  A
C889        C894   1.412       .  A
C890        C891   1.406       .  A
C890        C895   1.452   1_545  S
C891        C892   1.412       .  A
C891        C898   1.453   1_545  S
C892        C893   1.413       .  A
C893        C894   1.417       .  A
C893        C896   1.449       .  S
C894        C897   1.449       .  S
C895        N902   1.157       .  T
C896        N901   1.157       .  T
C897        N899   1.157       .  T
C898        N900   1.158       .  T
C903        C904   1.415       .  A
C903        C908   1.414       .  A
C904        C905   1.407       .  A
C904        C909   1.454       .  S
C905        C906   1.414       .  A
C905        C912   1.453       .  S
C906        C907   1.413       .  A
C907        C908   1.413       .  A
C907        C910   1.451       .  S
C908        C911   1.450       .  S
C909        N916   1.157       .  T
C910        N915   1.157       .  T
C911        N913   1.157       .  T
C912        N914   1.157       .  T
C917        C918   1.414       .  A
C917        C922   1.415       .  A
C918        C919   1.412       .  A
C918        C923   1.450       .  S
C919        C920   1.415       .  A
C919        C926   1.452       .  S
C920        C921   1.412       .  A
C921        C922   1.407       .  A
C921        C924   1.452       .  S
C922        C925   1.454       .  S
C923        N930   1.158       .  T
C924        N929   1.158       .  T
C925        N927   1.157       .  T
C926        N928   1.157       .  T
C931        C932   1.415       .  A
C931        C936   1.413       .  A
C932        C933   1.407       .  A
C932        C937   1.453       .  S
C933        C934   1.412       .  A
C933        C940   1.453       .  S
C934        C935   1.413       .  A
C935        C936   1.417       .  A
C935        C938   1.448       .  S
C936        C939   1.449       .  S
C937        N944   1.157       .  T
C938        N943   1.157       .  T
C939        N941   1.157       .  T
C940        N942   1.157       .  T
C945        C946   1.416       .  A
C945        C950   1.414       .  A
C946        C947   1.413       .  A
C946        C951   1.451       .  S
C947        C948   1.416       .  A
C947        C954   1.451       .  S
C948        C949   1.416       .  A
C949        C950   1.409       .  A
C949        C952   1.453       .  S
C950        C953   1.453       .  S
C951        N958   1.158       .  T
C952        N957   1.158       .  T
C953        N955   1.157       .  T
C954        N956   1.157       .  T
C959        C960   1.413       .  A
C959        C964   1.411       .  A
C960        C961   1.413       .  A
C960        C965   1.451       .  S
C961        C962   1.415       .  A
C961        C968   1.452       .  S
C962        C963   1.416       .  A
C963        C964   1.409       .  A
C963        C966   1.451       .  S
C964        C967   1.453       .  S
C965        N972   1.158       .  T
C966        N971   1.158       .  T
C967        N969   1.157       .  T
C968        N970   1.157       .  T
C973        C974   1.415       .  A
C973        C978   1.416       .  A
C974        C975   1.410       .  A
C974        C979   1.452       .  S
C975        C976   1.414       .  A
C975        C982   1.453       .  S
C976        C977   1.413       .  A
C977        C978   1.418       .  A
C977        C980   1.449       .  S
C978        C981   1.450       .  S
C979        N986   1.157       .  T
C980        N985   1.157   1_545  T
C981        N983   1.157   1_545  T
C982        N984   1.157       .  T
C987        C988   1.420       .  A
C987        C992   1.413       .  A
C988        C989   1.416       .  A
C988        C993   1.447       .  S
C989        C990   1.414       .  A
C989        C996   1.455       .  S
C990        C991   1.418       .  A
C991        C992   1.408       .  A
C991        C994   1.448       .  S
C992        C995   1.457       .  S
C993       N1000   1.162       .  T
C994        N999   1.161       .  T
C995        N997   1.154       .  T
C996        N998   1.154       .  T
C1001      C1002   1.412       .  A
C1001      C1006   1.413       .  A
C1002      C1003   1.407       .  A
C1002      C1007   1.452       .  S
C1003      C1004   1.413   1_554  A
C1003      C1010   1.452   1_554  S
C1004      C1005   1.414   1_556  A
C1005      C1006   1.416       .  A
C1005      C1008   1.449   1_544  S
C1006      C1009   1.450   1_545  S
C1007      N1014   1.157       .  T
C1008      N1013   1.158       .  T
C1009      N1011   1.157       .  T
C1010      N1012   1.157       .  T
C1015      C1016   1.421       .  A
C1015      C1020   1.416       .  A
C1016      C1017   1.413       .  A
C1016      C1021   1.452       .  S
C1017      C1018   1.414       .  A
C1017      C1024   1.452       .  S
C1018      C1019   1.419       .  A
C1019      C1020   1.413       .  A
C1019      C1022   1.452       .  S
C1020      C1023   1.452       .  S
C1021      N1028   1.158       .  T
C1022      N1027   1.158   1_545  T
C1023      N1025   1.157       .  T
C1024      N1026   1.157       .  T
C1029      C1030   1.416       .  A
C1029      C1034   1.417       .  A
C1030      C1031   1.407       .  A
C1030      C1035   1.453       .  S
C1031      C1032   1.414       .  A
C1031      C1038   1.453       .  S
C1032      C1033   1.416       .  A
C1033      C1034   1.411       .  A
C1033      C1036   1.452       .  S
C1034      C1037   1.452       .  S
C1035      N1042   1.157       .  T
C1036      N1041   1.157       .  T
C1037      N1039   1.158       .  T
C1038      N1040   1.158       .  T
C1043      C1044   1.413       .  A
C1043      C1048   1.413       .  A
C1044      C1045   1.411       .  A
C1044      C1049   1.452       .  S
C1045      C1046   1.413       .  A
C1045      C1052   1.452       .  S
C1046      C1047   1.413       .  A
C1047      C1048   1.410       .  A
C1047      C1050   1.451       .  S
C1048      C1051   1.452       .  S
C1049      N1056   1.158       .  T
C1050      N1055   1.157       .  T
C1051      N1053   1.157       .  T
C1052      N1054   1.157       .  T
C1057      C1058   1.415       .  A
C1057      C1062   1.413       .  A
C1058      C1059   1.412       .  A
C1058      C1063   1.451       .  S
C1059      C1060   1.413       .  A
C1059      C1066   1.452       .  S
C1060      C1061   1.413       .  A
C1061      C1062   1.409       .  A
C1061      C1064   1.452       .  S
C1062      C1065   1.452       .  S
C1063      N1070   1.157       .  T
C1064      N1069   1.157       .  T
C1065      N1067   1.157       .  T
C1066      N1068   1.158       .  T
C1071      C1072   1.410       .  A
C1071      C1076   1.414       .  A
C1072      C1073   1.410       .  A
C1072      C1077   1.452       .  S
C1073      C1074   1.422       .  A
C1073      C1080   1.453       .  S
C1074      C1075   1.416       .  A
C1075      C1076   1.414       .  A
C1075      C1078   1.450       .  S
C1076      C1079   1.452       .  S
C1077      N1084   1.158       .  T
C1078      N1083   1.158       .  T
C1079      N1081   1.157       .  T
C1080      N1082   1.157       .  T
C1085      C1086   1.412       .  A
C1085      C1090   1.413       .  A
C1086      C1087   1.405       .  A
C1086      C1091   1.454       .  S
C1087      C1088   1.413       .  A
C1087      C1094   1.453       .  S
C1088      C1089   1.414       .  A
C1089      C1090   1.414       .  A
C1089      C1092   1.451       .  S
C1090      C1093   1.451       .  S
C1091      N1098   1.157       .  T
C1092      N1097   1.157       .  T
C1093      N1095   1.157       .  T
C1094      N1096   1.157       .  T
C1099      C1100   1.419       .  A
C1099      C1104   1.417       .  A
C1100      C1101   1.412       .  A
C1100      C1105   1.452       .  S
C1101      C1102   1.414       .  A
C1101      C1108   1.453       .  S
C1102      C1103   1.412       .  A
C1103      C1104   1.412       .  A
C1103      C1106   1.452       .  S
C1104      C1107   1.450       .  S
C1105      N1112   1.158       .  T
C1106      N1111   1.157       .  T
C1107      N1109   1.157       .  T
C1108      N1110   1.157       .  T
C1113      C1114   1.413       .  A
C1113      C1118   1.412       .  A
C1114      C1115   1.416       .  A
C1114      C1119   1.450       .  S
C1115      C1116   1.414       .  A
C1115      C1122   1.449       .  S
C1116      C1117   1.416       .  A
C1117      C1118   1.408       .  A
C1117      C1120   1.452       .  S
C1118      C1121   1.454       .  S
C1119      N1126   1.157       .  T
C1120      N1125   1.157       .  T
C1121      N1123   1.158       .  T
C1122      N1124   1.157       .  T
C1127      C1128   1.413       .  A
C1127      C1132   1.417       .  A
C1128      C1129   1.407       .  A
C1128      C1133   1.453       .  S
C1129      C1130   1.415       .  A
C1129      C1136   1.453       .  S
C1130      C1131   1.414       .  A
C1131      C1132   1.414       .  A
C1131      C1134   1.451       .  S
C1132      C1135   1.450       .  S
C1133      N1140   1.157       .  T
C1134      N1139   1.157       .  T
C1135      N1137   1.158       .  T
C1136      N1138   1.158       .  T
C1141      C1142   1.415       .  A
C1141      C1146   1.412       .  A
C1142      C1143   1.410       .  A
C1142      C1147   1.455       .  S
C1143      C1144   1.416       .  A
C1143      C1150   1.450       .  S
C1144      C1145   1.417       .  A
C1145      C1146   1.411       .  A
C1145      C1148   1.454       .  S
C1146      C1149   1.449       .  S
C1147      N1154   1.156       .  T
C1148      N1153   1.156       .  T
C1149      N1151   1.159       .  T
C1150      N1152   1.159       .  T
C1155      C1156   1.414       .  A
C1155      C1160   1.415       .  A
C1156      C1157   1.412       .  A
C1156      C1161   1.453       .  S
C1157      C1158   1.418       .  A
C1157      C1164   1.451       .  S
C1158      C1159   1.415       .  A
C1159      C1160   1.409       .  A
C1159      C1162   1.453       .  S
C1160      C1163   1.453       .  S
C1161      N1168   1.157       .  T
C1162      N1167   1.157       .  T
C1163      N1165   1.158       .  T
C1164      N1166   1.158       .  T
C1169      C1170   1.413       .  A
C1169      C1174   1.414       .  A
C1170      C1171   1.415       .  A
C1170      C1175   1.450       .  S
C1171      C1172   1.414       .  A
C1171      C1178   1.450       .  S
C1172      C1173   1.416       .  A
C1173      C1174   1.410       .  A
C1173      C1176   1.453       .  S
C1174      C1177   1.452       .  S
C1175      N1182   1.157       .  T
C1176      N1181   1.158       .  T
C1177      N1179   1.157       .  T
C1178      N1180   1.157       .  T
C1183      C1184   1.413       .  A
C1183      C1188   1.413       .  A
C1184      C1185   1.410       .  A
C1184      C1189   1.452       .  S
C1185      C1186   1.412       .  A
C1185      C1192   1.452       .  S
C1186      C1187   1.412       .  A
C1187      C1188   1.409       .  A
C1187      C1190   1.452       .  S
C1188      C1191   1.452       .  S
C1189      N1196   1.157       .  T
C1190      N1195   1.157   1_565  T
C1191      N1193   1.157       .  T
C1192      N1194   1.157       .  T
C1197      C1198   1.412   1_556  A
C1197      C1202   1.412   1_556  A
C1198      C1199   1.408       .  A
C1198      C1203   1.452   1_554  S
C1199      C1200   1.412       .  A
C1199      C1206   1.452       .  S
C1200      C1201   1.412       .  A
C1201      C1202   1.415       .  A
C1201      C1204   1.449       .  S
C1202      C1205   1.450   1_554  S
C1203      N1210   1.158       .  T
C1204      N1209   1.157       .  T
C1205      N1207   1.157       .  T
C1206      N1208   1.157       .  T
C1211      C1212   1.419       .  A
C1211      C1216   1.413       .  A
C1212      C1213   1.414       .  A
C1212      C1217   1.452       .  S
C1213      C1214   1.412       .  A
C1213      C1220   1.451       .  S
C1214      C1215   1.419       .  A
C1215      C1216   1.411       .  A
C1215      C1218   1.452       .  S
C1216      C1219   1.452       .  S
C1217      N1224   1.158       .  T
C1218      N1223   1.158       .  T
C1219      N1221   1.157       .  T
C1220      N1222   1.157       .  T
C1225      C1226   1.416       .  A
C1225      C1230   1.413       .  A
C1226      C1227   1.414       .  A
C1226      C1231   1.451       .  S
C1227      C1228   1.413       .  A
C1227      C1234   1.451       .  S
C1228      C1229   1.413       .  A
C1229      C1230   1.406       .  A
C1229      C1232   1.453       .  S
C1230      C1233   1.453       .  S
C1231      N1238   1.157       .  T
C1232      N1237   1.157       .  T
C1233      N1235   1.158       .  T
C1234      N1236   1.158       .  T
C1239      C1240   1.413       .  A
C1239      C1244   1.413       .  A
C1240      C1241   1.412       .  A
C1240      C1245   1.452       .  S
C1241      C1242   1.416       .  A
C1241      C1248   1.451       .  S
C1242      C1243   1.415       .  A
C1243      C1244   1.408       .  A
C1243      C1246   1.453       .  S
C1244      C1247   1.453       .  S
C1245      N1252   1.157   1_455  T
C1246      N1251   1.157       .  T
C1247      N1249   1.157       .  T
C1248      N1250   1.157   1_455  T
C1253      C1254   1.414       .  A
C1253      C1258   1.415       .  A
C1254      C1255   1.412       .  A
C1254      C1259   1.450       .  S
C1255      C1256   1.416       .  A
C1255      C1262   1.452       .  S
C1256      C1257   1.414       .  A
C1257      C1258   1.408       .  A
C1257      C1260   1.452       .  S
C1258      C1261   1.454       .  S
C1259      N1266   1.158       .  T
C1260      N1265   1.158       .  T
C1261      N1263   1.157       .  T
C1262      N1264   1.157       .  T
C1267      C1268   1.415       .  A
C1267      C1272   1.415       .  A
C1268      C1269   1.412       .  A
C1268      C1273   1.452       .  S
C1269      C1270   1.414       .  A
C1269      C1276   1.451       .  S
C1270      C1271   1.414       .  A
C1271      C1272   1.407       .  A
C1271      C1274   1.453       .  S
C1272      C1275   1.453       .  S
C1273      N1280   1.157       .  T
C1274      N1279   1.157       .  T
C1275      N1277   1.158       .  T
C1276      N1278   1.158       .  T
C1281      C1282   1.416   1_455  A
C1281      C1286   1.413       .  A
C1282      C1283   1.410       .  A
C1282      C1287   1.452       .  S
C1283      C1284   1.415   1_655  A
C1283      C1290   1.451       .  S
C1284      C1285   1.420       .  A
C1285      C1286   1.411       .  A
C1285      C1288   1.453       .  S
C1286      C1289   1.452       .  S
C1287      N1294   1.157       .  T
C1288      N1293   1.158       .  T
C1289      N1291   1.158       .  T
C1290      N1292   1.158       .  T
C1295      C1296   1.412       .  A
C1295      C1300   1.412       .  A
C1296      C1297   1.409       .  A
C1296      C1301   1.452       .  S
C1297      C1298   1.414       .  A
C1297      C1304   1.452       .  S
C1298      C1299   1.412       .  A
C1299      C1300   1.411       .  A
C1299      C1302   1.451       .  S
C1300      C1303   1.451       .  S
C1301      N1308   1.157       .  T
C1302      N1307   1.157       .  T
C1303      N1305   1.157       .  T
C1304      N1306   1.158       .  T
C1309      C1310   1.413       .  A
C1309      C1314   1.413       .  A
C1310      C1311   1.411       .  A
C1310      C1315   1.452       .  S
C1311      C1312   1.414       .  A
C1311      C1318   1.451       .  S
C1312      C1313   1.413       .  A
C1313      C1314   1.406       .  A
C1313      C1316   1.453       .  S
C1314      C1317   1.453       .  S
C1315      N1322   1.157       .  T
C1316      N1321   1.157       .  T
C1317      N1319   1.157       .  T
C1318      N1320   1.157       .  T
C1323      C1324   1.416       .  A
C1323      C1328   1.413       .  A
C1324      C1325   1.411       .  A
C1324      C1329   1.453       .  S
C1325      C1326   1.415       .  A
C1325      C1332   1.452       .  S
C1326      C1327   1.415       .  A
C1327      C1328   1.413       .  A
C1327      C1330   1.452       .  S
C1328      C1331   1.451       .  S
C1329      N1336   1.157       .  T
C1330      N1335   1.157   1_455  T
C1331      N1333   1.157   1_455  T
C1332      N1334   1.158       .  T
C1337      C1338   1.412       .  A
C1337      C1342   1.413       .  A
C1338      C1339   1.407       .  A
C1338      C1343   1.453       .  S
C1339      C1340   1.414       .  A
C1339      C1346   1.452       .  S
C1340      C1341   1.414       .  A
C1341      C1342   1.412       .  A
C1341      C1344   1.451       .  S
C1342      C1345   1.451       .  S
C1343      N1350   1.157       .  T
C1344      N1349   1.157       .  T
C1345      N1347   1.157       .  T
C1346      N1348   1.157       .  T
C1351      C1352   1.415       .  A
C1351      C1356   1.413       .  A
C1352      C1353   1.417       .  A
C1352      C1357   1.450       .  S
C1353      C1354   1.412       .  A
C1353      C1360   1.450       .  S
C1354      C1355   1.411       .  A
C1355      C1356   1.408       .  A
C1355      C1358   1.453       .  S
C1356      C1359   1.452       .  S
C1357      N1364   1.157       .  T
C1358      N1363   1.157       .  T
C1359      N1361   1.157   1_455  T
C1360      N1362   1.158       .  T
C1365      C1366   1.418   1_455  A
C1365      C1370   1.422       .  A
C1366      C1367   1.415       .  A
C1366      C1371   1.451       .  S
C1367      C1368   1.418       .  A
C1367      C1374   1.453       .  S
C1368      C1369   1.412   1_655  A
C1369      C1370   1.414       .  A
C1369      C1372   1.451       .  S
C1370      C1373   1.452       .  S
C1371      N1378   1.158       .  T
C1372      N1377   1.157       .  T
C1373      N1375   1.157       .  T
C1374      N1376   1.158       .  T
C1379      C1380   1.416       .  A
C1379      C1384   1.413       .  A
C1380      C1381   1.412       .  A
C1380      C1385   1.452       .  S
C1381      C1382   1.413       .  A
C1381      C1388   1.452       .  S
C1382      C1383   1.414       .  A
C1383      C1384   1.411       .  A
C1383      C1386   1.452       .  S
C1384      C1387   1.452       .  S
C1385      N1392   1.158   1_655  T
C1386      N1391   1.157       .  T
C1387      N1389   1.157       .  T
C1388      N1390   1.157   1_655  T
C1393      C1394   1.412       .  A
C1393      C1398   1.412       .  A
C1394      C1395   1.408       .  A
C1394      C1399   1.451       .  S
C1395      C1396   1.414       .  A
C1395      C1402   1.454       .  S
C1396      C1397   1.415       .  A
C1397      C1398   1.411       .  A
C1397      C1400   1.451       .  S
C1398      C1401   1.453       .  S
C1399      N1406   1.158       .  T
C1400      N1405   1.159       .  T
C1401      N1403   1.156       .  T
C1402      N1404   1.156       .  T
C1407      C1408   1.413       .  A
C1407      C1412   1.412       .  A
C1408      C1409   1.417       .  A
C1408      C1413   1.450   1_655  S
C1409      C1410   1.412       .  A
C1409      C1416   1.448   1_655  S
C1410      C1411   1.412       .  A
C1411      C1412   1.409       .  A
C1411      C1414   1.452       .  S
C1412      C1415   1.452       .  S
C1413      N1420   1.157       .  T
C1414      N1419   1.157       .  T
C1415      N1417   1.158       .  T
C1416      N1418   1.157       .  T
C1421      C1422   1.416       .  A
C1421      C1426   1.417       .  A
C1422      C1423   1.414       .  A
C1422      C1427   1.451       .  S
C1423      C1424   1.418       .  A
C1423      C1430   1.452       .  S
C1424      C1425   1.416       .  A
C1425      C1426   1.408       .  A
C1425      C1428   1.453       .  S
C1426      C1429   1.453       .  S
C1427      N1434   1.157       .  T
C1428      N1433   1.157       .  T
C1429      N1431   1.157       .  T
C1430      N1432   1.158       .  T
C1435      C1436   1.414       .  A
C1435      C1440   1.411       .  A
C1436      C1437   1.413       .  A
C1436      C1441   1.448       .  S
C1437      C1438   1.412       .  A
C1437      C1444   1.454       .  S
C1438      C1439   1.416       .  A
C1439      C1440   1.409       .  A
C1439      C1442   1.449       .  S
C1440      C1443   1.455       .  S
C1441      N1448   1.160       .  T
C1442      N1447   1.161       .  T
C1443      N1445   1.154       .  T
C1444      N1446   1.154       .  T
C1449      C1450   1.413   1_655  A
C1449      C1454   1.414       .  A
C1450      C1451   1.414       .  A
C1450      C1455   1.449       .  S
C1451      C1452   1.409   1_454  A
C1451      C1458   1.449   1_554  S
C1452      C1453   1.409   1_556  A
C1453      C1454   1.407       .  A
C1453      C1456   1.452   1_554  S
C1454      C1457   1.452       .  S
C1455      N1462   1.157       .  T
C1456      N1461   1.158       .  T
C1457      N1459   1.157       .  T
C1458      N1460   1.157       .  T
C1463      C1464   1.410       .  A
C1463      C1468   1.414   1_655  A
C1464      C1465   1.410       .  A
C1464      C1469   1.453       .  S
C1465      C1466   1.421       .  A
C1465      C1472   1.452       .  S
C1466      C1467   1.417       .  A
C1467      C1468   1.414   1_655  A
C1467      C1470   1.451   1_655  S
C1468      C1471   1.452       .  S
C1469      N1476   1.157       .  T
C1470      N1475   1.157       .  T
C1471      N1473   1.158       .  T
C1472      N1474   1.158       .  T
