geometry optimzed in LAMMPS
_audit_creation_date              2020-11-30 
_audit_creation_method            'lammps2cif' 
_symmetry_space_group_name_H-M    'P1' 
_symmetry_Int_Tables_number       1 
_symmetry_cell_setting            triclinic 
loop_ 
_symmetry_equiv_pos_as_xyz 
  x,y,z 
_cell_length_a                    39.87042805 
_cell_length_b                    40.0511806957218 
_cell_length_c                    30.09199388815152 
_cell_angle_alpha                 79.96277057523876 
_cell_angle_beta                  80.92078184351266 
_cell_angle_gamma                 84.8832220480435 
loop_ 
_atom_site_label 
_atom_site_type_symbol 
_atom_site_fract_x 
_atom_site_fract_y 
_atom_site_fract_z 
_atom_site_charge 
N1          N  0.14977449  0.47940726  0.24680426    -0.02800
C2          C  0.14589466  0.48649627  0.20223272    -0.00300
C3          C  0.16437164  0.07514903  0.16110052    -0.23100
C4          C  0.18663662  0.07691243  0.19087809    -0.23400
C5          C  0.16958703  0.06744356  0.23452814    -0.00400
H6          H  0.16956179  0.08070027  0.12428836     0.13400
H7          H  0.21208173  0.08532075  0.18101608     0.13500
N8          N  0.21807200  0.06048051  0.28049169    -0.02800
C9          C  0.22069660  0.05991099  0.32478477    -0.00300
C10         C  0.18936474  0.06691452  0.34921991    -0.23100
C11         C  0.16632618  0.07129752  0.31878197    -0.23400
C12         C  0.18449549  0.06647287  0.27687112    -0.00400
H13         H  0.18383793  0.06832062  0.38524833     0.13400
H14         H  0.13939872  0.07760359  0.32686280     0.13500
N15         N  0.46856646  0.22568215  0.23798995    -0.02800
C16         C  0.46605324  0.22449331  0.19380860    -0.00300
C17         C  0.47081814  0.25590099  0.16745123    -0.23100
C18         C  0.47768472  0.27690004  0.19570463    -0.23400
C19         C  0.47577394  0.25819315  0.23939569    -0.00400
H20         H  0.47064016  0.26251661  0.13104150     0.13400
H21         H  0.48415517  0.30271600  0.18381595     0.13500
N22         N  0.48294708  0.30522992  0.28405731    -0.02800
C23         C  0.48717433  0.30641439  0.32760310    -0.00300
C24         C  0.48869260  0.27407743  0.35225596    -0.23100
C25         C  0.48605839  0.25220629  0.32270287    -0.23400
C26         C  0.48159148  0.27180837  0.28088749    -0.00400
H27         H  0.49100932  0.26713618  0.38809777     0.13400
H28         H  0.48736247  0.22499170  0.33202344     0.13500
C29         C  0.02534104  0.03511751  0.10004602     0.43100
N30         N  0.00099983  0.48769013  0.05604720     0.02000
C31         C  0.40573177  0.11478267  0.42835127    -0.05900
H32         H  0.37967338  0.11786551  0.09694845     0.07500
C33         C  0.35990298  0.46220048  0.11746505    -0.06300
Co34       Co  0.47746009  0.05902795  0.00166918     0.74200
N35         N  0.41637292  0.08912286  0.05586436    -0.25400
Co36       Co  0.38974372  0.06527985  0.01750803     0.74100
C37         C  0.32561062  0.02775711  0.13835518     0.43200
N38         N  0.44333367  0.44092888  0.07596925     0.01600
N39         N  0.36183325  0.03952604  0.07680706     0.01700
N40         N  0.46307378  0.10889793  0.42022223    -0.46300
H41         H  0.99909823  0.08706847  0.07554383     0.07500
N42         N  0.44988456  0.08643869  0.04937874     0.02000
N43         N  0.36135974  0.04308420  0.47851168     0.01700
C44         C  0.33310668  0.03521926  0.42647648     0.43300
N45         N  0.47517170  0.44931099  0.06938240    -0.24900
C46         C  0.01024596  0.06257142  0.40947028    -0.05800
N47         N  0.01830508  0.47162379  0.08845175    -0.46000
N48         N  0.34469977  0.05918662  0.44559132    -0.46200
C49         C  0.03147324  0.03724931  0.38618165     0.43100
N50         N  0.44920295  0.08872180  0.45692336     0.02000
N51         N  0.47410763  0.45522246  0.47140443    -0.24900
N52         N  0.99203990  0.04327307  0.04651617    -0.25400
N53         N  0.44230719  0.44664627  0.47901548     0.01600
H54         H  0.51797323  0.44122341  0.42491338     0.07500
H55         H  0.36282903  0.44327448  0.45593873     0.07500
N56         N  0.41568039  0.09182516  0.46264785    -0.25500
N57         N  0.36223558  0.00609850  0.08448617    -0.25100
N58         N  0.00714838  0.49106063  0.45419748     0.02000
C59         C  0.43719794  0.11817370  0.10103871     0.43400
C60         C  0.49001366  0.43353157  0.10516449    -0.06300
N61         N  0.36095915  0.00979988  0.48294520    -0.25100
H62         H  0.36431439  0.43554430  0.12969281     0.07500
N63         N  0.46317754  0.10337977  0.07541668    -0.46300
H64         H  0.51628631  0.43521641  0.10889379     0.07500
C65         C  0.46578391  0.42095126  0.42396171     0.43200
C66         C  0.00399503  0.06021233  0.07441835    -0.05800
Co67       Co  0.49445751  0.48193654  0.01017807     0.73800
N68         N  0.43543973  0.41993076  0.11463739    -0.46000
C69         C  0.43734134  0.12658083  0.40021107     0.43500
N70         N  0.02805390  0.47792615  0.42192897    -0.46000
Co71       Co  0.41085499  0.45969191  0.02839312     0.73900
C72         C  0.36020749  0.46994735  0.45854196    -0.06300
C73         C  0.40579773  0.10917921  0.08746944    -0.05900
N74         N  0.99532166  0.04508500  0.44841443    -0.25400
N75         N  0.34042795  0.05333696  0.10798913    -0.46200
H76         H  0.37957610  0.12187807  0.42441916     0.07500
C77         C  0.49108293  0.43999663  0.43746918    -0.06300
Cl78       Cl  0.43341680  0.01812999  0.01974565    -0.49300
C79         C  0.46336493  0.41411301  0.13567733     0.43200
H80         H  0.00765681  0.08981861  0.40060611     0.07400
N81         N  0.43637107  0.42592773  0.45177393    -0.46000
C82         C  0.50307611  0.37386780  0.39573941    -0.05200
C83         C  0.47224403  0.39373347  0.39550621     0.00800
C84         C  0.44791309  0.38646016  0.36953676    -0.07800
C85         C  0.45449747  0.35818057  0.34706993    -0.05200
C86         C  0.48481437  0.33764217  0.34834019     0.00800
C87         C  0.50989522  0.34574396  0.37279987    -0.07700
C88         C  0.54408668  0.32612280  0.37656772     0.62700
H89         H  0.52178744  0.37964800  0.41533740     0.13400
H90         H  0.43490024  0.35082927  0.33038897     0.13400
C91         C  0.41476448  0.40787999  0.36595122     0.62900
F92         F  0.56984486  0.34797863  0.36022540    -0.22300
F93         F  0.54993303  0.29936775  0.35242515    -0.19600
F94         F  0.54600523  0.31341481  0.42195122    -0.19300
F95         F  0.42095813  0.44202592  0.35605880    -0.19300
F96         F  0.39316902  0.40148992  0.40668431    -0.19600
F97         F  0.39843116  0.40053327  0.33179183    -0.22300
C98         C  0.44527944  0.34578335  0.24159300    -0.05200
C99         C  0.47831369  0.33439318  0.24944635     0.00800
C100        C  0.50632480  0.35029939  0.22174836    -0.07800
C101        C  0.50025390  0.37674360  0.18591638    -0.05200
C102        C  0.46711938  0.38783300  0.17691948     0.00800
C103        C  0.43894096  0.37292303  0.20675647    -0.07700
C104        C  0.40223827  0.38533654  0.20293116     0.62700
H105        H  0.42442497  0.33266422  0.26293778     0.13400
H106        H  0.52170278  0.38814046  0.16381736     0.13400
C107        C  0.54246196  0.33785705  0.22843483     0.62900
F108        F  0.37997521  0.37093598  0.23999642    -0.22300
F109        F  0.39303471  0.37674040  0.16418806    -0.19600
F110        F  0.39849004  0.42018688  0.20128841    -0.19300
F111        F  0.54792691  0.30415066  0.22289238    -0.19300
F112        F  0.54771079  0.34091837  0.27168447    -0.19600
F113        F  0.56621367  0.35637186  0.19757328    -0.22300
C114        C  0.42906717  0.20334637  0.30485219    -0.05200
C115        C  0.45996753  0.19929145  0.27638230     0.00800
C116        C  0.48321364  0.17176203  0.28866563    -0.07800
C117        C  0.47382156  0.14808092  0.32818952    -0.05200
C118        C  0.44290864  0.15206350  0.35735651     0.00800
C119        C  0.42051415  0.18107959  0.34611990    -0.07700
C120        C  0.38875261  0.19034526  0.37771729     0.62700
H121        H  0.41224557  0.22521953  0.29501141     0.12300
H122        H  0.49121991  0.12650595  0.33720549     0.13400
C123        C  0.51859962  0.16879878  0.26191198     0.62900
F124        F  0.37714917  0.22385541  0.36569415    -0.22300
F125        F  0.39545272  0.18655329  0.42210565    -0.19600
F126        F  0.36307564  0.17010376  0.37523610    -0.19300
F127        F  0.53864899  0.14250801  0.28257061    -0.19300
F128        F  0.96284449  0.21491261  0.23751309    -0.19600
F129        F  0.98905938  0.17244382  0.27924726    -0.22300
C130        C  0.43179697  0.17595286  0.19117085    -0.05200
C131        C  0.46086791  0.19424633  0.17417101     0.00800
C132        C  0.48247043  0.18597010  0.13490562    -0.07800
C133        C  0.47201423  0.16280021  0.11107963    -0.05200
C134        C  0.44274518  0.14480870  0.12719703     0.00800
C135        C  0.42294072  0.15030783  0.16912072    -0.07700
C136        C  0.39328181  0.12901839  0.19124293     0.62700
H137        H  0.41550773  0.18244266  0.22117209     0.13400
H138        H  0.48793196  0.15787832  0.07988877     0.13400
C139        C  0.94847895  0.21192071  0.12279294     0.62900
F140        F  0.38294265  0.13346613  0.23608147    -0.22300
F141        F  0.40259340  0.09488958  0.19129429    -0.19600
F142        F  0.36593701  0.13830205  0.16774664    -0.19300
F143        F  0.95388241  0.23190325  0.15361170    -0.19300
F144        F  0.51676710  0.21971695  0.07522255    -0.19600
F145        F  0.97919343  0.19450835  0.11045258    -0.22300
C146        C  0.27122889  0.07910231  0.34709764    -0.05200
C147        C  0.25221258  0.05189835  0.34497769     0.00800
C148        C  0.26248548  0.01858519  0.36450100    -0.07800
C149        C  0.29007146  0.01418813  0.38893370    -0.05200
C150        C  0.30773077  0.04174964  0.39427303     0.00800
C151        C  0.29972546  0.07453284  0.37005687    -0.07700
C152        C  0.32059890  0.10481221  0.36797565     0.62700
H153        H  0.26295228  0.10435271  0.33177966     0.13400
H154        H  0.29690707  0.98876674  0.40516358     0.13400
C155        C  0.24544260  0.98677906  0.36155310     0.62900
F156        F  0.31338153  0.13089256  0.33340086    -0.22300
F157        F  0.35494745  0.09543666  0.35924740    -0.19600
F158        F  0.31343615  0.11716419  0.40879828    -0.19300
F159        F  0.26857527  0.96581598  0.33816271    -0.19300
F160        F  0.27271531  0.41057444  0.33222676    -0.19600
F161        F  0.31742800  0.39893877  0.36949202    -0.22300
C162        C  0.29459162  0.06653856  0.18900662    -0.05200
C163        C  0.29779166  0.03381366  0.17687328     0.00800
C164        C  0.27341668  0.01006801  0.19990106    -0.07800
C165        C  0.24803317  0.01997240  0.23416572    -0.05200
C166        C  0.24535023  0.05241106  0.24575740     0.00800
C167        C  0.26842082  0.07652188  0.22210815    -0.07700
C168        C  0.26541337  0.11355080  0.22805457     0.62700
H169        H  0.31233103  0.08520424  0.17153220     0.13400
H170        H  0.22946706  0.00248541  0.25236681     0.13400
C171        C  0.27338373  0.97435031  0.18984753     0.62900
F172        F  0.26221216  0.13369684  0.18646414    -0.22300
F173        F  0.29456105  0.12122657  0.24269533    -0.19600
F174        F  0.23760301  0.12166527  0.25878534    -0.19300
F175        F  0.32224371  0.40178333  0.17576363    -0.19300
F176        F  0.27366492  0.97492403  0.14373013    -0.19600
F177        F  0.24493524  0.95790510  0.21256918    -0.22300
C178        C  0.12406375  0.51352787  0.30418668    -0.05200
C179        C  0.11000121  0.05232233  0.26924030     0.00800
C180        C  0.10967055  0.02163892  0.30077482    -0.07800
C181        C  0.08376772  0.01807426  0.33849804    -0.05200
C182        C  0.05661532  0.04271804  0.34366541     0.00800
C183        C  0.09925775  0.52134933  0.34020537    -0.07700
C184        C  0.10364810  0.55250818  0.36073628     0.62700
H185        H  0.14455210  0.53012234  0.29068497     0.13400
H186        H  0.08472701  0.99538983  0.36397293     0.13400
C187        C  0.13508276  0.99161079  0.29592915     0.62900
F188        F  0.13576313  0.56456172  0.34655673    -0.22300
F189        F  0.02658279  0.12201212  0.32889097    -0.19600
F190        F  0.08039079  0.57839334  0.34689486    -0.19300
F191        F  0.15316759  0.98581483  0.33235136    -0.19300
F192        F  0.12820043  0.41841845  0.26143019    -0.19600
F193        F  0.11769596  0.96308411  0.29657301    -0.22300
C194        C  0.06708412  0.51983884  0.15023547    -0.05200
C195        C  0.05129766  0.04295259  0.12585763     0.00800
C196        C  0.06263270  0.01970725  0.16236089    -0.07800
C197        C  0.08921923  0.02850754  0.18264937    -0.05200
C198        C  0.10343582  0.06011068  0.16890667     0.00800
C199        C  0.09555529  0.51981234  0.17200986    -0.07700
C200        C  0.10743203  0.55328721  0.17908479     0.62700
H201        H  0.05220214  0.54346709  0.14288091     0.13400
H202        H  0.09999027  0.01014591  0.20828266     0.13400
C203        C  0.04692759  0.98589138  0.17999123     0.62900
F204        F  0.08671761  0.58083116  0.16273375    -0.22300
F205        F  0.12540270  0.12225039  0.08349675    -0.19600
F206        F  0.10720658  0.55344410  0.22482069    -0.19300
F207        F  0.05592948  0.96439875  0.14821558    -0.19300
F208        F  0.03648581  0.41861990  0.15000921    -0.19600
F209        F  0.05790945  0.97013994  0.22037045    -0.22300
N210        N  0.14698769  0.46594759  0.75643391    -0.02800
C211        C  0.14200473  0.46549861  0.71305277    -0.00300
C212        C  0.16752964  0.06817616  0.66578625    -0.23100
C213        C  0.18904850  0.06904246  0.69677774    -0.23400
C214        C  0.17138598  0.05795875  0.73952688    -0.00400
H215        H  0.17369682  0.07403029  0.62908462     0.13400
H216        H  0.21464307  0.07737026  0.68847918     0.13500
N217        N  0.21890208  0.04597474  0.78723440    -0.02800
C218        C  0.22084695  0.04432035  0.83206651    -0.00300
C219        C  0.18955338  0.05332357  0.85530811    -0.23100
C220        C  0.16732950  0.05996432  0.82392255    -0.23400
C221        C  0.18576075  0.05452450  0.78256876    -0.00400
H222        H  0.18382262  0.05590032  0.89096492     0.13400
H223        H  0.14087225  0.06870010  0.83071053     0.13500
N224        N  0.47273249  0.22474302  0.73452698    -0.02800
C225        C  0.46874685  0.22317331  0.69105031    -0.00300
C226        C  0.47394713  0.25400244  0.66351292    -0.23100
C227        C  0.48245907  0.27514998  0.69046942    -0.23400
C228        C  0.48143492  0.25693992  0.73443034    -0.00400
H229        H  0.47302772  0.26004730  0.62721914     0.13400
H230        H  0.48956632  0.30058987  0.67741187     0.13500
N231        N  0.49187868  0.30375526  0.77724864    -0.02800
C232        C  0.49839243  0.30504401  0.81979416    -0.00300
C233        C  0.50180803  0.27260300  0.84380538    -0.23100
C234        C  0.49717171  0.25070144  0.81510786    -0.23400
C235        C  0.49013909  0.27038190  0.77446108    -0.00400
H236        H  0.50589884  0.26563018  0.87902919     0.13400
H237        H  0.49857801  0.22343942  0.82413390     0.13500
C238        C  0.02939499  0.03045303  0.59769590     0.43100
N239        N  0.00525386  0.48625775  0.55248295     0.02000
C240        C  0.40788045  0.11272723  0.92325073    -0.05900
H241        H  0.37829051  0.11559374  0.60145500     0.07500
C242        C  0.35923932  0.46100328  0.62259735    -0.06300
Co243      Co  0.47490098  0.05685887  0.50495313     0.74200
N244        N  0.41419799  0.08584202  0.56102548    -0.25400
Co245      Co  0.38684413  0.06520024  0.51990872     0.74100
C246        C  0.32362436  0.02295361  0.63809258     0.43200
N247        N  0.44210113  0.44242084  0.57693390     0.01600
N248        N  0.35885291  0.03740137  0.57700055     0.01700
N249        N  0.46521426  0.10740915  0.91508836    -0.46300
H250        H  0.00217879  0.08306652  0.57879084     0.07500
N251        N  0.44765895  0.08187865  0.55536522     0.02000
N252        N  0.36545890  0.03983665  0.97897740     0.01700
C253        C  0.33530445  0.02964156  0.93048678     0.43300
N254        N  0.47372725  0.45144868  0.56929455    -0.24900
C255        C  0.01028591  0.05761547  0.90977774    -0.05800
N256        N  0.02114966  0.46988140  0.58602795    -0.46000
N257        N  0.34873595  0.05442466  0.94554831    -0.46200
C258        C  0.03250000  0.03135286  0.88945281     0.43100
N259        N  0.45148758  0.08763070  0.95216901     0.02000
N260        N  0.47842862  0.45015752  0.97134212    -0.24900
N261        N  0.99457430  0.04167520  0.54568527    -0.25400
N262        N  0.44662227  0.44164002  0.97782891     0.01600
H263        H  0.52332495  0.43585397  0.92690745     0.07500
H264        H  0.36578615  0.43698039  0.95466986     0.07500
N265        N  0.41798707  0.09036572  0.95810114    -0.25500
N266        N  0.35867476  0.00409059  0.58130288    -0.25100
N267        N  0.00464869  0.49235859  0.95783369     0.02000
C268        C  0.43574896  0.11354230  0.60738317     0.43400
C269        C  0.49028780  0.43414758  0.60250037    -0.06300
N270        N  0.36443953  0.00648947  0.98689769    -0.25100
H271        H  0.36527016  0.43431348  0.63207510     0.07500
N272        N  0.46131064  0.09775163  0.58224994    -0.46300
H273        H  0.51685261  0.43589962  0.60463377     0.07500
C274        C  0.47178435  0.41485804  0.92462300     0.43200
C275        C  0.00736795  0.05671305  0.57485520    -0.05800
Co276      Co  0.49101398  0.48581523  0.51138575     0.73800
N277        N  0.43596687  0.41933450  0.61394723    -0.46000
C278        C  0.43944674  0.12446718  0.89472830     0.43500
N279        N  0.02594548  0.47815805  0.92715029    -0.46000
Co280      Co  0.40799226  0.46267066  0.53209240     0.73900
C281        C  0.36371159  0.46407501  0.95454784    -0.06300
C282        C  0.40414249  0.10582987  0.59284970    -0.05900
N283        N  0.99518136  0.04175475  0.94974895    -0.25400
N284        N  0.33829971  0.04969992  0.61025262    -0.46200
H285        H  0.38170580  0.11996735  0.91964155     0.07500
C286        C  0.49635407  0.43432831  0.93868230    -0.06300
Cl287      Cl  0.42993354  0.01729858  0.51820425    -0.49300
C288        C  0.46501295  0.41287147  0.63255595     0.43200
H289        H  0.00709865  0.08453991  0.89859284     0.07400
N290        N  0.44162950  0.42027643  0.95084544    -0.46000
C291        C  0.51115421  0.37068343  0.89222964    -0.05200
C292        C  0.47922535  0.38879978  0.89430670     0.00800
C293        C  0.45538488  0.38162894  0.86755535    -0.07800
C294        C  0.46329687  0.35460477  0.84288116    -0.05200
C295        C  0.49484020  0.33597556  0.84145049     0.00800
C296        C  0.51967908  0.34464896  0.86574611    -0.07700
C297        C  0.55529137  0.32753871  0.86555962     0.62700
H298        H  0.52966238  0.37649868  0.91211013     0.13400
H299        H  0.44382832  0.34668146  0.82655876     0.13400
C300        C  0.42170336  0.40222893  0.86463947     0.62900
F301        F  0.57889469  0.35205195  0.85307455    -0.22300
F302        F  0.56294557  0.30449296  0.83569187    -0.19600
F303        F  0.55872700  0.31071685  0.90896547    -0.19300
F304        F  0.42701658  0.43658003  0.85600481    -0.19300
F305        F  0.40007217  0.39468521  0.90514427    -0.19600
F306        F  0.40584665  0.39518354  0.82985487    -0.22300
C307        C  0.45205069  0.34364645  0.73820120    -0.05200
C308        C  0.48567531  0.33265422  0.74306709     0.00800
C309        C  0.51251713  0.34747838  0.71147898    -0.07800
C310        C  0.50463166  0.37401438  0.67672767    -0.05200
C311        C  0.47080984  0.38551816  0.67177613     0.00800
C312        C  0.44393351  0.37014625  0.70362052    -0.07700
C313        C  0.40674096  0.38080740  0.70142893     0.62700
H314        H  0.43211968  0.33031697  0.76128620     0.13400
H315        H  0.52509207  0.38511287  0.65224028     0.13400
C316        C  0.54900493  0.33338643  0.71245593     0.62900
F317        F  0.38569394  0.36515620  0.73894408    -0.22300
F318        F  0.39758181  0.37179487  0.66288422    -0.19600
F319        F  0.40136028  0.41551249  0.70042563    -0.19300
F320        F  0.55143568  0.29907103  0.70998799    -0.19300
F321        F  0.55945523  0.33802143  0.75236972    -0.19600
F322        F  0.57097674  0.34928802  0.67623061    -0.22300
C323        C  0.43352293  0.20373424  0.80257877    -0.05200
C324        C  0.46403935  0.19893467  0.77358667     0.00800
C325        C  0.48623425  0.17023593  0.78468638    -0.07800
C326        C  0.47615695  0.14624638  0.82346677    -0.05200
C327        C  0.44538727  0.15058022  0.85269417     0.00800
C328        C  0.42397894  0.18053405  0.84267727    -0.07700
C329        C  0.39197715  0.18925838  0.87415018     0.62700
H330        H  0.41745730  0.22637930  0.79355408     0.12300
H331        H  0.49272170  0.12378755  0.83145998     0.13400
C332        C  0.52100253  0.16554836  0.75694396     0.62900
F333        F  0.38011653  0.22274588  0.86273175    -0.22300
F334        F  0.39843111  0.18488109  0.91870752    -0.19600
F335        F  0.36659045  0.16891754  0.87082768    -0.19300
F336        F  0.54173874  0.14136858  0.78017339    -0.19300
F337        F  0.97006043  0.21659004  0.75498828    -0.19600
F338        F  0.96725532  0.17198999  0.71967084    -0.22300
C339        C  0.43104197  0.17773669  0.68942391    -0.05200
C340        C  0.46205658  0.19274018  0.67336947     0.00800
C341        C  0.48427029  0.18112940  0.63686898    -0.07800
C342        C  0.47344277  0.15652351  0.61569968    -0.05200
C343        C  0.44227270  0.14145117  0.63101612     0.00800
C344        C  0.42084249  0.15169912  0.66935089    -0.07700
C345        C  0.38738896  0.13596298  0.68917958     0.62700
H346        H  0.41425663  0.18741476  0.71690769     0.13400
H347        H  0.49026349  0.14862256  0.58689378     0.13400
C348        C  0.94538450  0.21693067  0.61739777     0.62900
F349        F  0.37528308  0.14409814  0.73195873    -0.22300
F350        F  0.39147373  0.10093596  0.69373589    -0.19600
F351        F  0.36325109  0.14806383  0.66106252    -0.19300
F352        F  0.92787223  0.24224556  0.59111355    -0.19300
F353        F  0.54270907  0.16452616  0.61787224    -0.19600
F354        F  0.95827477  0.23060106  0.64985754    -0.22300
C355        C  0.26019525  0.06778509  0.87049561    -0.05200
C356        C  0.25230698  0.03989460  0.85281130     0.00800
C357        C  0.27294360  0.00923704  0.85811725    -0.07800
C358        C  0.30104404  0.00788971  0.88136695    -0.05200
C359        C  0.30802609  0.03531078  0.90122476     0.00800
C360        C  0.28765278  0.06635677  0.89465063    -0.07700
C361        C  0.29365019  0.09788069  0.91346515     0.62700
H362        H  0.24389571  0.09086802  0.86579717     0.13400
H363        H  0.31699134  0.98453451  0.88548278     0.13400
C364        C  0.26603303  0.97693704  0.84206202     0.62900
F365        F  0.27007783  0.12451664  0.90304732    -0.22300
F366        F  0.32544031  0.10894718  0.89467732    -0.19600
F367        F  0.29113312  0.09065788  0.96049402    -0.19300
F368        F  0.29060973  0.97113600  0.80583562    -0.19300
F369        F  0.27318356  0.39768060  0.83638087    -0.19600
F370        F  0.31442061  0.38632688  0.87978831    -0.22300
C371        C  0.29837966  0.05397207  0.70055029    -0.05200
C372        C  0.29686193  0.02636783  0.67795594     0.00800
C373        C  0.26864477  0.00555504  0.69163140    -0.07800
C374        C  0.24498389  0.01167138  0.72977426    -0.05200
C375        C  0.24632466  0.03958257  0.75160158     0.00800
C376        C  0.27254190  0.06218352  0.73513927    -0.07700
C377        C  0.27320828  0.09647521  0.74968259     0.62700
H378        H  0.31908528  0.07069868  0.68919309     0.13400
H379        H  0.22409631  0.99542306  0.74191831     0.13400
C380        C  0.26142095  0.97855548  0.66524438     0.62900
F381        F  0.27740456  0.12123790  0.71126690    -0.22300
F382        F  0.30034278  0.09605736  0.77329779    -0.19600
F383        F  0.24358422  0.10557993  0.77651214    -0.19300
F384        F  0.33376687  0.39715740  0.68563206    -0.19300
F385        F  0.26688647  0.99030111  0.61881743    -0.19600
F386        F  0.22787584  0.96995431  0.67621216    -0.22300
C387        C  0.12330415  0.50581825  0.80827779    -0.05200
C388        C  0.11138100  0.04256882  0.77193210     0.00800
C389        C  0.11180203  0.01332861  0.80613657    -0.07800
C390        C  0.08571541  0.01086813  0.84388878    -0.05200
C391        C  0.05785545  0.03507271  0.84683866     0.00800
C392        C  0.09868921  0.51665927  0.84295210    -0.07700
C393        C  0.10376988  0.54918291  0.85978539     0.62700
H394        H  0.14442339  0.52117420  0.79288450     0.13400
H395        H  0.08719430  0.98949015  0.87134650     0.13400
C396        C  0.13854472  0.98406877  0.80434720     0.62900
F397        F  0.13590992  0.56059549  0.84356572    -0.22300
F398        F  0.02605177  0.11258055  0.82683469    -0.19600
F399        F  0.08035041  0.57444249  0.84464383    -0.19300
F400        F  0.15732969  0.98218776  0.83970986    -0.19300
F401        F  0.12329946  0.40593686  0.77910500    -0.19600
F402        F  0.12263432  0.95403811  0.80940115    -0.22300
C403        C  0.07746724  0.51312972  0.64272092    -0.05200
C404        C  0.05561349  0.03656459  0.62478141     0.00800
C405        C  0.07101098  0.01054374  0.65486094    -0.07800
C406        C  0.09691284  0.01895108  0.67690078    -0.05200
C407        C  0.10739598  0.05216529  0.67007926     0.00800
C408        C  0.10368395  0.50788788  0.66973612    -0.07700
C409        C  0.12564139  0.53680479  0.67055984     0.62700
H410        H  0.07333646  0.53796453  0.62301217     0.13400
H411        H  0.11004639  0.99935863  0.69864332     0.13400
C412        C  0.06038310  0.97420334  0.66404773     0.62900
F413        F  0.11447645  0.56701922  0.64564977    -0.22300
F414        F  0.13069436  0.12045181  0.61234126    -0.19600
F415        F  0.12475587  0.54192695  0.71488672    -0.19300
F416        F  0.07030457  0.95929621  0.62554101    -0.19300
F417        F  0.00735575  0.43495370  0.67337061    -0.19600
F418        F  0.07520757  0.95466622  0.69938478    -0.22300
N419        N  0.13741573  0.05988213  0.23225914    -0.02800
C420        C  0.13423721  0.06538516  0.18744565    -0.00300
C421        C  0.17680998  0.48873795  0.17480793    -0.23100
C422        C  0.20088648  0.48376533  0.20343599    -0.23400
C423        C  0.18389117  0.47732161  0.24784976    -0.00400
H424        H  0.18132503  0.49397746  0.13791453     0.13400
H425        H  0.22751622  0.48569330  0.19130142     0.13500
N426        N  0.23227461  0.47564266  0.29443486    -0.02800
C427        C  0.23465943  0.46784709  0.33949683    -0.00300
C428        C  0.20449148  0.45687868  0.36419972    -0.23100
C429        C  0.18271576  0.45719362  0.33324266    -0.23400
C430        C  0.19985115  0.46977658  0.29054045    -0.00400
H431        H  0.19887568  0.44971218  0.40083843     0.13400
H432        H  0.15720921  0.44879364  0.34192135     0.13500
N433        N  0.40411642  0.72573491  0.24508452    -0.02800
C434        C  0.39962834  0.72582548  0.20109739    -0.00300
C435        C  0.39317817  0.75879987  0.18018737    -0.23100
C436        C  0.39480795  0.77961099  0.21152669    -0.23400
C437        C  0.40210165  0.75891079  0.25119034    -0.00400
H438        H  0.38722480  0.76700339  0.14600324     0.13400
H439        H  0.39009482  0.80686490  0.20566306     0.13500
N440        N  0.41807467  0.80262569  0.29565949    -0.02800
C441        C  0.41742330  0.80404029  0.34053534    -0.00300
C442        C  0.40690459  0.77417362  0.36700617    -0.23100
C443        C  0.40054853  0.75362168  0.33755089    -0.23400
C444        C  0.40740701  0.77150525  0.29357325    -0.00400
H445        H  0.40239847  0.76868332  0.40388245     0.13400
H446        H  0.38994023  0.72920104  0.34826998     0.13500
C447        C  0.03236789  0.49581896  0.10443678     0.43100
N448        N  0.00410507  0.01138618  0.05320196     0.02000
C449        C  0.37946768  0.59851429  0.43276776    -0.05900
H450        H  0.35542093  0.59339473  0.09918579     0.07500
C451        C  0.34073486  0.99622237  0.12260119    -0.06300
Co452      Co  0.46613566  0.56699219  0.99665780     0.74200
N453        N  0.39912274  0.57677660  0.05492512    -0.25400
Co454      Co  0.38245162  0.54489253  0.01536862     0.74100
C455        C  0.33620852  0.48763413  0.13698124     0.43200
N456        N  0.41599426  0.94893001  0.08798029     0.01600
N457        N  0.36464766  0.51104973  0.07399048     0.01700
N458        N  0.43411739  0.61209815  0.42033360    -0.46300
H459        H  0.03023987  0.55359377  0.07812238     0.07500
N460        N  0.43114157  0.58463377  0.04743746     0.02000
N461        N  0.36321217  0.51638356  0.48434576     0.01700
C462        C  0.33823802  0.49712119  0.43708199     0.43300
N463        N  0.44955376  0.94670660  0.08144350    -0.24900
C464        C  0.03017969  0.53489406  0.41197451    -0.05800
N465        N  0.02458222  0.00545599  0.08469702    -0.46000
N466        N  0.34139954  0.52509720  0.45487982    -0.46200
C467        C  0.04396895  0.50404824  0.39407387     0.43100
N468        N  0.42750814  0.59034559  0.45853681     0.02000
N469        N  0.44560655  0.94915829  0.47525683    -0.24900
N470        N  0.00326248  0.52081316  0.04952030    -0.25400
N471        N  0.41210291  0.95166672  0.48157931     0.01600
H472        H  0.48266281  0.92274394  0.43186825     0.07500
H473        H  0.33880481  0.97691666  0.44811985     0.07500
N474        N  0.39568218  0.58197602  0.46683613    -0.25500
N475        N  0.37589674  0.47882890  0.07852779    -0.25100
N476        N  0.00646861  0.01291714  0.45103262     0.02000
C477        C  0.40851481  0.61185604  0.10168562     0.43400
C478        C  0.46050971  0.92575050  0.11677281    -0.06300
N479        N  0.37462122  0.48428279  0.48707853    -0.25100
H480        H  0.33624346  0.97006088  0.13583504     0.07500
N481        N  0.43765054  0.60535081  0.07421823    -0.46300
H482        H  0.48675735  0.91770030  0.11965531     0.07500
C483        C  0.42515224  0.92033187  0.42910806     0.43200
C484        C  0.02249435  0.52840478  0.07820432    -0.05800
Co485      Co  0.47733558  0.97121964  0.02207307     0.73800
N486        N  0.40309377  0.93025591  0.12670021    -0.46000
C487        C  0.40518787  0.61886650  0.40127781     0.43500
N488        N  0.02825259  0.00715827  0.41468165    -0.46000
Co489      Co  0.38929089  0.97706965  0.03779031     0.73900
C490        C  0.34364142  0.00232330  0.45177884    -0.06300
C491        C  0.38252291  0.59311104  0.08830801    -0.05900
N492        N  0.00843608  0.52426868  0.44924977    -0.25400
N493        N  0.34093111  0.51744496  0.10823390    -0.46200
H494        H  0.35321007  0.59545576  0.43117137     0.07500
C495        C  0.45630678  0.93014256  0.44264935    -0.06300
Cl496      Cl  0.43843333  0.51336493  0.01254007    -0.49300
C497        C  0.42967607  0.91522788  0.14726311     0.43200
H498        H  0.03549369  0.56106433  0.40045721     0.07400
N499        N  0.39901030  0.93475959  0.45506357    -0.46000
C500        C  0.45233479  0.87344234  0.38883068    -0.05200
C501        C  0.42222838  0.89216868  0.40336297     0.00800
C502        C  0.39070191  0.88263037  0.39410524    -0.07800
C503        C  0.39077324  0.85370491  0.37337106    -0.05200
C504        C  0.42086566  0.83498727  0.35972778     0.00800
C505        C  0.45229599  0.84497026  0.36747642    -0.07700
C506        C  0.48646696  0.82618468  0.35600128     0.62700
H507        H  0.47657838  0.88038751  0.39497892     0.13400
H508        H  0.36698423  0.84505856  0.36794315     0.13400
C509        C  0.35693494  0.90243167  0.40532226     0.62900
F510        F  0.50012266  0.81455353  0.39579560    -0.22300
F511        F  0.50828820  0.84827802  0.32743346    -0.19600
F512        F  0.48453834  0.79868075  0.33489055    -0.19300
F513        F  0.35961702  0.93629167  0.38637029    -0.19300
F514        F  0.34781542  0.89929501  0.45206393    -0.19600
F515        F  0.33083387  0.89069182  0.38800924    -0.22300
C516        C  0.39875633  0.85869303  0.25940310    -0.05200
C517        C  0.42312380  0.83128097  0.25936966     0.00800
C518        C  0.45095687  0.83245110  0.22349228    -0.07800
C519        C  0.45222275  0.86033414  0.18778377    -0.05200
C520        C  0.42725420  0.88740471  0.18728936     0.00800
C521        C  0.40079077  0.88716241  0.22475999    -0.07700
C522        C  0.37414654  0.91627082  0.22787727     0.62700
H523        H  0.37725101  0.85701725  0.28628889     0.13400
H524        H  0.47283523  0.86056527  0.15957519     0.13400
C525        C  0.47962731  0.80519095  0.22040384     0.62900
F526        F  0.35442047  0.91348558  0.27044981    -0.22300
F527        F  0.35312793  0.91598486  0.19575248    -0.19600
F528        F  0.38946697  0.94685544  0.21988370    -0.19300
F529        F  0.47775563  0.78026375  0.25831393    -0.19300
F530        F  0.51043816  0.81974983  0.21577151    -0.19600
F531        F  0.47884227  0.79029447  0.18247535    -0.22300
C532        C  0.37487097  0.68222923  0.30088202    -0.05200
C533        C  0.40552351  0.69632337  0.28021625     0.00800
C534        C  0.43568339  0.68421610  0.29830971    -0.07800
C535        C  0.43391049  0.65889764  0.33715219    -0.05200
C536        C  0.40318405  0.64438964  0.35841683     0.00800
C537        C  0.37310296  0.65558317  0.33844161    -0.07700
C538        C  0.33918289  0.64012229  0.35537001     0.62700
H539        H  0.35191139  0.69330248  0.28777614     0.12300
H540        H  0.45729204  0.65060691  0.35106553     0.13400
C541        C  0.47007736  0.69789565  0.27919335     0.62900
F542        F  0.31466957  0.65359299  0.32821035    -0.22300
F543        F  0.32728181  0.64644533  0.39899291    -0.19600
F544        F  0.34300423  0.60559747  0.35436209    -0.19300
F545        F  0.48103396  0.71383123  0.31106237    -0.19300
F546        F  0.04235554  0.69015788  0.23780674    -0.19600
F547        F  0.01954722  0.65136480  0.20759093    -0.22300
C548        C  0.38145817  0.66906258  0.19298827    -0.05200
C549        C  0.40315536  0.69574773  0.17691752     0.00800
C550        C  0.42678258  0.69406902  0.13657591    -0.07800
C551        C  0.42648533  0.66672417  0.11309566    -0.05200
C552        C  0.40471018  0.64010839  0.12896747     0.00800
C553        C  0.38270436  0.64054676  0.17083090    -0.07700
C554        C  0.36130756  0.61100004  0.19322337     0.62700
H555        H  0.36256605  0.67094767  0.22234684     0.13400
H556        H  0.44346829  0.66621290  0.08134433     0.13400
C557        C  0.01648852  0.70085040  0.10078092     0.62900
F558        F  0.34873432  0.61333699  0.23827340    -0.22300
F559        F  0.38074988  0.58062975  0.19283696    -0.19600
F560        F  0.33395314  0.61076572  0.17034569    -0.19300
F561        F  0.00917756  0.72268454  0.06208882    -0.19300
F562        F  0.47839330  0.70899915  0.08645483    -0.19600
F563        F  0.03096047  0.71841188  0.12775451    -0.22300
C564        C  0.25683902  0.50363554  0.38423900    -0.05200
C565        C  0.26278311  0.47572452  0.36114036     0.00800
C566        C  0.29383449  0.45590905  0.36141345    -0.07800
C567        C  0.31864691  0.46573605  0.38378600    -0.05200
C568        C  0.31239581  0.49286553  0.40862589     0.00800
C569        C  0.28107063  0.51280941  0.40818981    -0.07700
C570        C  0.27236835  0.54296162  0.43340372     0.62700
H571        H  0.23247641  0.51794604  0.38387637     0.13400
H572        H  0.34283088  0.45105309  0.38328401     0.13400
C573        C  0.30161244  0.42378439  0.34033628     0.62900
F574        F  0.24017231  0.55783313  0.42840983    -0.22300
F575        F  0.29530079  0.56758839  0.41634762    -0.19600
F576        F  0.27324102  0.53255711  0.47953831    -0.19300
F577        F  0.32333615  0.43077021  0.29975359    -0.19300
F578        F  0.21721256  0.99329028  0.33954759    -0.19600
F579        F  0.23538302  0.96970511  0.40506691    -0.22300
C580        C  0.30195883  0.51072063  0.20251841    -0.05200
C581        C  0.31037178  0.48299891  0.17891349     0.00800
C582        C  0.29292609  0.45271165  0.19504303    -0.07800
C583        C  0.27028831  0.45056723  0.23612413    -0.05200
C584        C  0.26068767  0.47874456  0.25814059     0.00800
C585        C  0.27645606  0.50960585  0.24085584    -0.07700
C586        C  0.26665257  0.54231593  0.25984243     0.62700
H587        H  0.31460894  0.53411431  0.18988397     0.13400
H588        H  0.25722290  0.42754395  0.24940275     0.13400
C589        C  0.29445727  0.42389431  0.16776467     0.62900
F590        F  0.25715189  0.56738122  0.22549863    -0.22300
F591        F  0.29442278  0.55227413  0.27545621    -0.19600
F592        F  0.23983130  0.53947577  0.29508266    -0.19300
F593        F  0.30134977  0.95571834  0.20461644    -0.19300
F594        F  0.29617221  0.43629559  0.12164414    -0.19600
F595        F  0.26557311  0.40562686  0.18021116    -0.22300
C596        C  0.08228794  0.07618394  0.27304279    -0.05200
C597        C  0.12339896  0.48468616  0.28408847     0.00800
C598        C  0.09799477  0.46154955  0.30186290    -0.07800
C599        C  0.07194883  0.47007871  0.33600610    -0.05200
C600        C  0.07185845  0.49950526  0.35570685     0.00800
C601        C  0.05460364  0.07113198  0.30821046    -0.07700
C602        C  0.02374170  0.09602042  0.30520823     0.62700
H603        H  0.08236850  0.09892547  0.24757597     0.13400
H604        H  0.05196719  0.45267775  0.34856585     0.13400
C605        C  0.09850637  0.42665923  0.28882419     0.62900
F606        F  0.02156374  0.11008793  0.26023995    -0.22300
F607        F  0.09968187  0.54473821  0.40779931    -0.19600
F608        F  0.99387907  0.08012742  0.32214288    -0.19300
F609        F  0.09580918  0.40251900  0.32797827    -0.19300
F610        F  0.15767344  0.99617233  0.25587598    -0.19600
F611        F  0.07108847  0.42515878  0.26642782    -0.22300
C612        C  0.06462831  0.07512404  0.11358668    -0.05200
C613        C  0.05855027  0.49062462  0.13542681     0.00800
C614        C  0.07708636  0.45916922  0.14738008    -0.07800
C615        C  0.10427281  0.45888477  0.17198081    -0.05200
C616        C  0.11368427  0.48856955  0.18400480     0.00800
C617        C  0.08967945  0.08465290  0.13569413    -0.07700
C618        C  0.10110841  0.12067912  0.12191952     0.62700
H619        H  0.05573604  0.09306996  0.08597370     0.13400
H620        H  0.11981750  0.43567299  0.17980875     0.13400
C621        C  0.06969514  0.42629719  0.13314456     0.62900
F622        F  0.07379200  0.14309392  0.11186664    -0.22300
F623        F  0.14007775  0.55772957  0.15633342    -0.19600
F624        F  0.11432896  0.13146106  0.15643388    -0.19300
F625        F  0.07485961  0.42958903  0.08608487    -0.19300
F626        F  0.01184718  0.99082976  0.18823800    -0.19600
F627        F  0.09071551  0.39908192  0.14974166    -0.22300
N628        N  0.13944532  0.05055443  0.73576547    -0.02800
C629        C  0.13708937  0.05781209  0.69064155    -0.00300
C630        C  0.17066496  0.45219997  0.68870469    -0.23100
C631        C  0.19449711  0.44475737  0.71777535    -0.23400
C632        C  0.17974535  0.45404269  0.75911365    -0.00400
H633        H  0.17358696  0.44753871  0.65389830     0.13400
H634        H  0.21894235  0.43217307  0.70926098     0.13500
N635        N  0.22948508  0.45733748  0.80092054    -0.02800
C636        C  0.23349696  0.45368221  0.84543149    -0.00300
C637        C  0.20358985  0.44466738  0.87309384    -0.23100
C638        C  0.18042788  0.44223868  0.84466689    -0.23400
C639        C  0.19675822  0.45040996  0.80038840    -0.00400
H640        H  0.19888721  0.44112797  0.90997377     0.13400
H641        H  0.15444527  0.43551686  0.85563120     0.13500
N642        N  0.40186258  0.72892066  0.74742951    -0.02800
C643        C  0.39082098  0.72966588  0.70670593    -0.00300
C644        C  0.37885216  0.76223710  0.69067439    -0.23100
C645        C  0.38403459  0.78233081  0.72129522    -0.23400
C646        C  0.39875715  0.76154103  0.75580782    -0.00400
H647        H  0.36655690  0.77054778  0.66076659     0.13400
H648        H  0.37642476  0.80902864  0.71881688     0.13500
N649        N  0.41698467  0.80634699  0.79618628    -0.02800
C650        C  0.42483726  0.80712218  0.83821188    -0.00300
C651        C  0.42346632  0.77528347  0.86413999    -0.23100
C652        C  0.41436517  0.75413385  0.83727110    -0.23400
C653        C  0.40971645  0.77379977  0.79550021    -0.00400
H654        H  0.42760182  0.76835988  0.89935004     0.13400
H655        H  0.41114269  0.72755119  0.84883165     0.13500
C656        C  0.03395757  0.49355913  0.60438272     0.43100
N657        N  0.00646913  0.00972930  0.54930361     0.02000
C658        C  0.38593879  0.59414270  0.92198121    -0.05900
H659        H  0.35120227  0.59361414  0.60952203     0.07500
C660        C  0.33769630  0.99259287  0.61913396    -0.06300
Co661      Co  0.46154569  0.57052530  0.50330584     0.74200
N662        N  0.39524627  0.57780932  0.56530373    -0.25400
Co663      Co  0.37811269  0.54736119  0.52503452     0.74100
C664        C  0.33378893  0.48413836  0.64403641     0.43200
N665        N  0.41068467  0.94633676  0.58012380     0.01600
N666        N  0.36165235  0.51131994  0.58263627     0.01700
N667        N  0.44021312  0.60912312  0.91208314    -0.46300
H668        H  0.03043481  0.55178302  0.58164794     0.07500
N669        N  0.42695532  0.58672527  0.55686002     0.02000
N670        N  0.36757207  0.51218350  0.97596285     0.01700
C671        C  0.34128143  0.49025575  0.93198602     0.43300
N672        N  0.44422478  0.94330638  0.57383631    -0.24900
C673        C  0.02944501  0.53499841  0.91514051    -0.05800
N674        N  0.02778243  0.00200012  0.57975249    -0.46000
N675        N  0.34504500  0.51937230  0.94712030    -0.46200
C676        C  0.04297049  0.50321741  0.89889988     0.43100
N677        N  0.43338214  0.58642711  0.94947663     0.02000
N678        N  0.45062312  0.94696614  0.98422649    -0.24900
N679        N  0.00722619  0.51941436  0.54708350    -0.25400
N680        N  0.41709822  0.94902908  0.99035402     0.01600
H681        H  0.48833293  0.92026929  0.94181107     0.07500
H682        H  0.33865350  0.97209606  0.95830163     0.07500
N683        N  0.40166330  0.57761252  0.95642210    -0.25500
N684        N  0.37428926  0.47962784  0.58478330    -0.25100
N685        N  0.00691323  0.00971792  0.95550131     0.02000
C686        C  0.40361967  0.61316226  0.61189300     0.43400
C687        C  0.45452487  0.92196344  0.60921054    -0.06300
N688        N  0.37877618  0.47994146  0.98092610    -0.25100
H689        H  0.33299891  0.96626371  0.63090592     0.07500
N690        N  0.43284537  0.60789484  0.58357094    -0.46300
H691        H  0.48068428  0.91421994  0.61315769     0.07500
C692        C  0.43100540  0.91630101  0.93968869     0.43200
C693        C  0.02493462  0.52652960  0.57808413    -0.05800
Co694      Co  0.47296057  0.96960604  0.51650969     0.73800
N695        N  0.39708019  0.92791593  0.61868150    -0.46000
C696        C  0.41135731  0.61574830  0.89288054     0.43500
N697        N  0.02937615  0.00247430  0.92046452    -0.46000
Co698      Co  0.38499379  0.97746934  0.53171751     0.73900
C699        C  0.34576421  0.99755216  0.95798493    -0.06300
C700        C  0.37836381  0.59348376  0.59902742    -0.05900
N701        N  0.00636826  0.52557536  0.95177544    -0.25400
N702        N  0.33727623  0.51515429  0.61740326    -0.46200
H703        H  0.36010333  0.59083662  0.91813891     0.07500
C704        C  0.46184179  0.92693060  0.95293696    -0.06300
Cl705      Cl  0.43464629  0.51660325  0.51796232    -0.49300
C706        C  0.42325528  0.91212053  0.63934327     0.43200
H707        H  0.03613998  0.56080324  0.90327435     0.07400
N708        N  0.40447612  0.93104121  0.96467841    -0.46000
C709        C  0.45894963  0.87219002  0.89478763    -0.05200
C710        C  0.42865683  0.89020082  0.91035859     0.00800
C711        C  0.39751827  0.88223163  0.89808652    -0.07800
C712        C  0.39817449  0.85614649  0.87199470    -0.05200
C713        C  0.42836826  0.83794560  0.85752790     0.00800
C714        C  0.45941537  0.84608576  0.86896727    -0.07700
C715        C  0.49372278  0.82796933  0.85598843     0.62700
H716        H  0.48287190  0.87779741  0.90360751     0.13400
H717        H  0.37460094  0.84849171  0.86444071     0.13400
C718        C  0.36347617  0.90049218  0.91233341     0.62900
F719        F  0.51612849  0.85151772  0.83214257    -0.22300
F720        F  0.49239986  0.80368092  0.82913996    -0.19600
F721        F  0.50632120  0.81228986  0.89522700    -0.19300
F722        F  0.36533870  0.93498836  0.89725378    -0.19300
F723        F  0.35506166  0.89414738  0.95928153    -0.19600
F724        F  0.33732872  0.88988108  0.89392263    -0.22300
C725        C  0.39442541  0.86033039  0.75669787    -0.05200
C726        C  0.42007414  0.83395759  0.75832824     0.00800
C727        C  0.44683372  0.83385854  0.72123634    -0.07800
C728        C  0.44646709  0.85977938  0.68344524    -0.05200
C729        C  0.42053325  0.88581653  0.68105569     0.00800
C730        C  0.39394258  0.88629137  0.71848564    -0.07700
C731        C  0.36486943  0.91346506  0.71814814     0.62700
H732        H  0.37378663  0.85937536  0.78479670     0.13400
H733        H  0.46671437  0.85916766  0.65490702     0.13400
C734        C  0.47627430  0.80718485  0.71872091     0.62900
F735        F  0.34439710  0.91146946  0.76011046    -0.22300
F736        F  0.34483281  0.90938738  0.68620181    -0.19600
F737        F  0.37747257  0.94541851  0.70755519    -0.19300
F738        F  0.47632934  0.78336223  0.75771270    -0.19300
F739        F  0.50660909  0.82299115  0.71105349    -0.19600
F740        F  0.47492691  0.79041980  0.68265789    -0.22300
C741        C  0.37579241  0.69146075  0.81348905    -0.05200
C742        C  0.40458488  0.69905253  0.78127376     0.00800
C743        C  0.43520642  0.67885176  0.78485889    -0.07800
C744        C  0.43551234  0.65081645  0.82038264    -0.05200
C745        C  0.40702971  0.64388472  0.85411578     0.00800
C746        C  0.37685716  0.66558689  0.85142399    -0.07700
C747        C  0.34664770  0.66404172  0.88929360     0.62700
H748        H  0.35285852  0.70773404  0.80987354     0.12300
H749        H  0.45879760  0.63489291  0.82278221     0.13400
C750        C  0.46799657  0.68615527  0.75279024     0.62900
F751        F  0.32585332  0.69370085  0.88522295    -0.22300
F752        F  0.35757498  0.66001207  0.93143064    -0.19600
F753        F  0.32724710  0.63760526  0.88733243    -0.19300
F754        F  0.47496359  0.66174577  0.72474918    -0.19300
F755        F  0.04583572  0.68168342  0.73118607    -0.19600
F756        F  0.02051863  0.63696434  0.71759181    -0.22300
C757        C  0.37629354  0.67094188  0.70233234    -0.05200
C758        C  0.39287919  0.70039316  0.68139006     0.00800
C759        C  0.41161361  0.70128061  0.63690946    -0.07800
C760        C  0.41340762  0.67244352  0.61567073    -0.05200
C761        C  0.39737089  0.64278571  0.63674522     0.00800
C762        C  0.37836413  0.64188672  0.68101662    -0.07700
C763        C  0.36113745  0.61036124  0.70649978     0.62700
H764        H  0.36132351  0.67093856  0.73556819     0.13400
H765        H  0.42753556  0.67289821  0.58177621     0.13400
C766        C  0.03812513  0.68720216  0.61275923     0.62900
F767        F  0.34859465  0.61347852  0.75131645    -0.22300
F768        F  0.38413628  0.58237763  0.70700874    -0.19600
F769        F  0.33409199  0.60499844  0.68562554    -0.19300
F770        F  0.05068599  0.70562372  0.64048733    -0.19300
F771        F  0.40760118  0.75845751  0.59857623    -0.19600
F772        F  0.05944150  0.65811974  0.61050105    -0.22300
C773        C  0.25803028  0.49326629  0.88282730    -0.05200
C774        C  0.26298648  0.46370235  0.86302910     0.00800
C775        C  0.29422862  0.44403086  0.86384191    -0.07800
C776        C  0.31979335  0.45539666  0.88367431    -0.05200
C777        C  0.31439353  0.48408895  0.90568669     0.00800
C778        C  0.28294351  0.50380686  0.90471185    -0.07700
C779        C  0.27468450  0.53497768  0.92786101     0.62700
H780        H  0.23371988  0.50761799  0.88207549     0.13400
H781        H  0.34391088  0.44059720  0.88365970     0.13400
C782        C  0.30165081  0.41028868  0.84662256     0.62900
F783        F  0.24215324  0.54919653  0.92358462    -0.22300
F784        F  0.29724019  0.55952828  0.90826739    -0.19600
F785        F  0.27668460  0.52613303  0.97394674    -0.19300
F786        F  0.32584649  0.41417708  0.80804615    -0.19300
F787        F  0.23433257  0.97813559  0.82869226    -0.19600
F788        F  0.26770850  0.94971987  0.87715076    -0.22300
C789        C  0.29177915  0.50303622  0.70702423    -0.05200
C790        C  0.30662557  0.47608516  0.68442220     0.00800
C791        C  0.29437488  0.44301946  0.70075265    -0.07800
C792        C  0.27123048  0.43802336  0.74128795    -0.05200
C793        C  0.25556217  0.46496381  0.76218808     0.00800
C794        C  0.26540677  0.49827018  0.74443628    -0.07700
C795        C  0.24890816  0.52942062  0.76334726     0.62700
H796        H  0.30020947  0.52842577  0.69462854     0.13400
H797        H  0.26302771  0.41283615  0.75549990     0.13400
C798        C  0.30307319  0.41284905  0.67569506     0.62900
F799        F  0.23939318  0.55358879  0.72803431    -0.22300
F800        F  0.27212069  0.54272081  0.78399218    -0.19600
F801        F  0.22011604  0.52265090  0.79477515    -0.19300
F802        F  0.28187231  0.94946638  0.67570791    -0.19300
F803        F  0.30403948  0.42287950  0.62917739    -0.19600
F804        F  0.27896713  0.38882458  0.68910648    -0.22300
C805        C  0.08294138  0.06556136  0.77385286    -0.05200
C806        C  0.12163445  0.47505309  0.79282299     0.00800
C807        C  0.09588089  0.45318270  0.81441812    -0.07800
C808        C  0.07014548  0.46479826  0.84646081    -0.05200
C809        C  0.07067933  0.49613063  0.86131891     0.00800
C810        C  0.05531796  0.06154841  0.80901097    -0.07700
C811        C  0.02423921  0.08585790  0.80405675     0.62700
H812        H  0.08261529  0.08758195  0.74712920     0.13400
H813        H  0.04989496  0.44814910  0.86145547     0.13400
C814        C  0.09562263  0.41642829  0.80827870     0.62900
F815        F  0.02272061  0.09914135  0.75864269    -0.22300
F816        F  0.10035189  0.54378858  0.90691196    -0.19600
F817        F  0.99461506  0.06946773  0.82059687    -0.19300
F818        F  0.09611007  0.39586928  0.85023174    -0.19300
F819        F  0.16034596  0.98704568  0.76359155    -0.19600
F820        F  0.06612541  0.41178139  0.79196765    -0.22300
C821        C  0.06506753  0.07016815  0.62028342    -0.05200
C822        C  0.05802904  0.48648778  0.63842342     0.00800
C823        C  0.06314306  0.45401683  0.66527505    -0.07800
C824        C  0.08978668  0.44883089  0.69163075    -0.05200
C825        C  0.11015096  0.47502065  0.69375949     0.00800
C826        C  0.09048510  0.07864171  0.64277399    -0.07700
C827        C  0.09882085  0.11572696  0.63717267     0.62700
H828        H  0.05326299  0.09002980  0.59762275     0.13400
H829        H  0.09626498  0.42354852  0.70858979     0.13400
C830        C  0.04150439  0.42449976  0.66593757     0.62900
F831        F  0.07566785  0.13736676  0.61450965    -0.22300
F832        F  0.15888300  0.52897796  0.65234664    -0.19600
F833        F  0.09806856  0.12532713  0.67922701    -0.19300
F834        F  0.04911605  0.41236067  0.62497924    -0.19300
F835        F  0.02544343  0.97383337  0.67602859    -0.19600
F836        F  0.04730852  0.39782014  0.70042811    -0.22300
N837        N  0.64227565  0.55816646  0.23440575    -0.02800
C838        C  0.63901060  0.55965648  0.19007563    -0.00300
C839        C  0.66995271  0.98615474  0.18269887    -0.23100
C840        C  0.69438414  0.97617982  0.21040323    -0.23400
C841        C  0.67810625  0.97249661  0.25528938    -0.00400
H842        H  0.67386285  0.99134746  0.14579416     0.13400
H843        H  0.72086649  0.97257986  0.19747594     0.13500
N844        N  0.72832615  0.96649705  0.29937057    -0.02800
C845        C  0.73236828  0.95649665  0.34359253    -0.00300
C846        C  0.70205508  0.94692830  0.36943206    -0.23100
C847        C  0.67858032  0.95056724  0.33994251    -0.23400
C848        C  0.69508016  0.96294484  0.29688487    -0.00400
H849        H  0.69721778  0.93949294  0.40608901     0.13400
H850        H  0.65239630  0.94478055  0.34993795     0.13500
N851        N  0.89631528  0.22157384  0.24695127    -0.02800
C852        C  0.89226950  0.21944403  0.20350337    -0.00300
C853        C  0.88573493  0.25142674  0.17970868    -0.23100
C854        C  0.88645120  0.27405219  0.20891999    -0.23400
C855        C  0.89320503  0.25539604  0.25027511    -0.00400
H856        H  0.88167538  0.25771162  0.14441508     0.13400
H857        H  0.88189086  0.30109610  0.20002945     0.13500
N858        N  0.90709968  0.30226385  0.29153691    -0.02800
C859        C  0.90791347  0.30469368  0.33595694    -0.00300
C860        C  0.89753152  0.27520338  0.36385515    -0.23100
C861        C  0.89074343  0.25366400  0.33599344    -0.23400
C862        C  0.89699547  0.27047798  0.29144590    -0.00400
H863        H  0.89480640  0.27005052  0.40071898     0.13400
H864        H  0.88116490  0.22887072  0.34800086     0.13500
C865        C  0.52855929  0.00980929  0.11102456     0.43100
N866        N  0.50888625  0.51452870  0.04929588     0.02000
C867        C  0.87844446  0.09156501  0.43199256    -0.05900
H868        H  0.84926553  0.08620450  0.10320259     0.07500
C869        C  0.83889388  0.49709606  0.11327576    -0.06300
Co870      Co  0.96011074  0.06143432  0.99909776     0.74200
N871        N  0.89307795  0.07077883  0.05789792    -0.25400
Co872      Co  0.87752129  0.03753710  0.02015303     0.74100
C873        C  0.83440931  0.98081546  0.14444584     0.43200
N874        N  0.91046564  0.44613741  0.07614826     0.01600
N875        N  0.86096889  0.00398762  0.07981505     0.01700
N876        N  0.93285821  0.10601046  0.41867586    -0.46300
H877        H  0.52228719  0.06702324  0.08333043     0.07500
N878        N  0.92481071  0.07951203  0.04947910     0.02000
N879        N  0.86380957  0.00812315  0.48147313     0.01700
C880        C  0.83914152  0.98831446  0.43424266     0.43300
N881        N  0.94394152  0.44191741  0.07140310    -0.24900
C882        C  0.52367819  0.04139571  0.41821831    -0.05800
N883        N  0.52922041  0.50683487  0.08083496    -0.46000
N884        N  0.84223079  0.01655431  0.45160995    -0.46200
C885        C  0.53787075  0.01061619  0.39950596     0.43100
N886        N  0.92731342  0.08279275  0.45568559     0.02000
N887        N  0.94907470  0.44497287  0.47202386    -0.24900
N888        N  0.50210777  0.03044173  0.05188999    -0.25400
N889        N  0.91552667  0.44920647  0.47823137     0.01600
H890        H  0.98454566  0.41537303  0.43013883     0.07500
H891        H  0.83846598  0.47967432  0.44817370     0.07500
N892        N  0.89566174  0.07403913  0.46426953    -0.25500
N893        N  0.87338743  0.97215101  0.08522886    -0.25100
N894        N  0.50710504  0.52071914  0.45356800     0.02000
C895        C  0.90174302  0.10682856  0.10330639     0.43400
C896        C  0.95277164  0.41930772  0.10665934    -0.06300
N897        N  0.87510266  0.97593578  0.48484519    -0.25100
H898        H  0.83247066  0.47120021  0.12500049     0.07500
N899        N  0.93091402  0.10086418  0.07557556    -0.46300
H900        H  0.97862316  0.41062238  0.11131148     0.07500
C901        C  0.92706125  0.41680437  0.42684356     0.43200
C902        C  0.51842040  0.04088047  0.08196433    -0.05800
Co903      Co  0.97461437  0.46665990  0.01454675     0.73800
N904        N  0.89557546  0.42710958  0.11331873    -0.46000
C905        C  0.90322756  0.11323120  0.40110787     0.43500
N906        N  0.52998118  0.51451714  0.41843633    -0.46000
Co907      Co  0.88674830  0.47867742  0.02648785     0.73900
C908        C  0.84658432  0.50435307  0.45003993    -0.06300
C909        C  0.87617632  0.08710840  0.09103709    -0.05900
N910        N  0.50152370  0.03041517  0.45514799    -0.25400
N911        N  0.83754847  0.01027348  0.11445832    -0.46200
H912        H  0.85187128  0.08892906  0.43204697     0.07500
C913        C  0.95870197  0.42470933  0.44055958    -0.06300
Cl914      Cl  0.93406230  0.00707318  0.01759788    -0.49300
C915        C  0.92057630  0.40946531  0.13486670     0.43200
H916        H  0.52927327  0.06763169  0.40808595     0.07400
N917        N  0.90139740  0.43256083  0.45220315    -0.46000
C918        C  0.94420558  0.35957350  0.40639382    -0.05200
C919        C  0.92288738  0.38938275  0.40073018     0.00800
C920        C  0.89873692  0.39235213  0.37013362    -0.07800
C921        C  0.89578589  0.36468892  0.34800952    -0.05200
C922        C  0.91678439  0.33466518  0.35407199     0.00800
C923        C  0.94191318  0.33226881  0.38343759    -0.07700
C924        C  0.96671052  0.30162581  0.39283027     0.62700
H925        H  0.96275573  0.35727501  0.42966766     0.13400
H926        H  0.87551589  0.36576128  0.32791634     0.13400
C927        C  0.87600988  0.42447616  0.36074476     0.62900
F928        F  0.99944754  0.31229277  0.38642691    -0.22300
F929        F  0.96655898  0.27783030  0.36474470    -0.19600
F930        F  0.95881001  0.28612708  0.43767693    -0.19300
F931        F  0.89547380  0.45246955  0.34967528    -0.19300
F932        F  0.85251422  0.42780679  0.39895465    -0.19600
F933        F  0.85840341  0.42394721  0.32472381    -0.22300
C934        C  0.88297835  0.35168815  0.24406992    -0.05200
C935        C  0.91129148  0.32974503  0.25334542     0.00800
C936        C  0.94247916  0.33415917  0.22412185    -0.07800
C937        C  0.94408906  0.36003123  0.18575653    -0.05200
C938        C  0.91584546  0.38241916  0.17625527     0.00800
C939        C  0.88471020  0.37850184  0.20673289    -0.07700
C940        C  0.85350136  0.40259841  0.20115891     0.62700
H941        H  0.85917267  0.34706168  0.26631996     0.13400
H942        H  0.96778055  0.36273232  0.16285910     0.13400
C943        C  0.97388624  0.31160403  0.23355311     0.62900
F944        F  0.82757341  0.39579989  0.23731116    -0.22300
F945        F  0.84108813  0.39953060  0.16177339    -0.19600
F946        F  0.86194381  0.43562963  0.19926999    -0.19300
F947        F  0.96758100  0.27824893  0.23456159    -0.19300
F948        F  0.98224320  0.31534248  0.27516568    -0.19600
F949        F  0.00161260  0.31940868  0.20043639    -0.22300
C950        C  0.86910993  0.17765750  0.30425533    -0.05200
C951        C  0.89894075  0.19311812  0.28329735     0.00800
C952        C  0.92965148  0.18221368  0.30071441    -0.07800
C953        C  0.92916932  0.15671295  0.33927632    -0.05200
C954        C  0.89944424  0.14028918  0.36022960     0.00800
C955        C  0.86864442  0.15080666  0.34150121    -0.07700
C956        C  0.83513185  0.13475551  0.35970817     0.62700
H957        H  0.84578203  0.18766803  0.29132752     0.12300
H958        H  0.95283467  0.14943711  0.35286858     0.13400
C959        C  0.96312549  0.19765322  0.28115350     0.62900
F960        F  0.80951970  0.14855133  0.33455072    -0.22300
F961        F  0.82457089  0.14014657  0.40404796    -0.19600
F962        F  0.83894315  0.10042804  0.35734436    -0.19300
F963        F  0.97002029  0.21961849  0.30879446    -0.19300
F964        F  0.53452264  0.19861227  0.25864215    -0.19600
F965        F  0.51662903  0.16267997  0.21878144    -0.22300
C966        C  0.87484265  0.16231338  0.19658091    -0.05200
C967        C  0.89745337  0.18837834  0.18167340     0.00800
C968        C  0.92135895  0.18671072  0.14171973    -0.07800
C969        C  0.92011167  0.16055870  0.11682415    -0.05200
C970        C  0.89783192  0.13432285  0.13160667     0.00800
C971        C  0.87542394  0.13448259  0.17325584    -0.07700
C972        C  0.85186753  0.10617287  0.19340201     0.62700
H973        H  0.85552795  0.16440667  0.22557267     0.13400
H974        H  0.93748259  0.16054458  0.08521978     0.13400
C975        C  0.51750506  0.19933339  0.11722577     0.62900
F976        F  0.84090097  0.10643849  0.23938238    -0.22300
F977        F  0.86839824  0.07473766  0.18943744    -0.19600
F978        F  0.82360075  0.11039117  0.17119086    -0.19300
F979        F  0.52902283  0.21751845  0.14617406    -0.19300
F980        F  0.93904942  0.23273605  0.08448785    -0.19600
F981        F  0.54092787  0.17213161  0.11188825    -0.22300
C982        C  0.75550060  0.99221279  0.38723051    -0.05200
C983        C  0.76121743  0.96443523  0.36393799     0.00800
C984        C  0.79290413  0.94549873  0.36213749    -0.07800
C985        C  0.81845905  0.95628545  0.38241399    -0.05200
C986        C  0.81234897  0.98317790  0.40769860     0.00800
C987        C  0.78017671  0.00168287  0.41016278    -0.07700
C988        C  0.77083826  0.03020860  0.43812137     0.62700
H989        H  0.73082962  0.00602348  0.38818259     0.13400
H990        H  0.84306024  0.94229650  0.38037785     0.13400
C991        C  0.80069223  0.91309504  0.34172050     0.62900
F992        F  0.73735907  0.04271898  0.43746211    -0.22300
F993        F  0.79133002  0.05688842  0.42067612    -0.19600
F994        F  0.77473683  0.01837874  0.48314147    -0.19300
F995        F  0.82306121  0.91941045  0.30158157    -0.19300
F996        F  0.72631505  0.50035387  0.32634058    -0.19600
F997        F  0.74807247  0.47168858  0.38649801    -0.22300
C998        C  0.79721301  0.00369751  0.20800095    -0.05200
C999        C  0.80787377  0.97559857  0.18563748     0.00800
C1000       C  0.79164911  0.94453159  0.20197759    -0.07800
C1001       C  0.76702619  0.94265954  0.24101427    -0.05200
C1002       C  0.75582845  0.97085867  0.26208970     0.00800
C1003       C  0.77083876  0.00213150  0.24536289    -0.07700
C1004       C  0.75977548  0.03446442  0.26485632     0.62700
H1005       H  0.80911291  0.02752014  0.19550797     0.13400
H1006       H  0.75459727  0.91930941  0.25444980     0.13400
C1007       C  0.79819338  0.91347068  0.17843465     0.62900
F1008       F  0.75211511  0.06018843  0.23015792    -0.22300
F1009       F  0.78614904  0.04379026  0.28399458    -0.19600
F1010       F  0.73135204  0.03113911  0.29773221    -0.19300
F1011       F  0.79114536  0.45718462  0.18693884    -0.19300
F1012       F  0.79977785  0.92276135  0.13172989    -0.19600
F1013       F  0.77244703  0.89126652  0.19257996    -0.22300
C1014       C  0.58675702  0.57657518  0.27324251    -0.05200
C1015       C  0.61867161  0.98654330  0.29288206     0.00800
C1016       C  0.59567414  0.96232060  0.31634373    -0.07800
C1017       C  0.56971072  0.97209728  0.34962157    -0.05200
C1018       C  0.56589752  0.00499929  0.36125459     0.00800
C1019       C  0.55922257  0.57404719  0.30916507    -0.07700
C1020       C  0.52831930  0.59847104  0.30388257     0.62700
H1021       H  0.58658894  0.59739421  0.24505959     0.13400
H1022       H  0.55228029  0.95315707  0.36714166     0.13400
C1023       C  0.59814339  0.92547635  0.30958951     0.62900
F1024       F  0.52788708  0.61283356  0.25863134    -0.22300
F1025       F  0.59054299  0.06565680  0.39164857    -0.19600
F1026       F  0.49866165  0.58175990  0.31845790    -0.19300
F1027       F  0.60267487  0.90475636  0.35032171    -0.19300
F1028       F  0.66439110  0.49726582  0.26927233    -0.19600
F1029       F  0.56811079  0.91802695  0.29706583    -0.22300
C1030       C  0.56620844  0.57429274  0.12268612    -0.05200
C1031       C  0.55250410  0.00627484  0.14448368     0.00800
C1032       C  0.55696272  0.97587200  0.17562640    -0.07800
C1033       C  0.58493081  0.97202004  0.19919956    -0.05200
C1034       C  0.60689957  0.99804090  0.19488440     0.00800
C1035       C  0.59112699  0.58200699  0.14630810    -0.07700
C1036       C  0.59859687  0.61922825  0.14101129     0.62700
H1037       H  0.55491087  0.59488364  0.10038119     0.13400
H1038       H  0.59130379  0.94750752  0.21825849     0.13400
C1039       C  0.53381539  0.94669973  0.18261254     0.62900
F1040       F  0.56851465  0.63815061  0.15149943    -0.22300
F1041       F  0.63649748  0.06925266  0.12149984    -0.19600
F1042       F  0.62084327  0.62533139  0.16910925    -0.19300
F1043       F  0.54168450  0.92892301  0.14648541    -0.19300
F1044       F  0.52512756  0.47799497  0.17486157    -0.19600
F1045       F  0.53766664  0.92421163  0.22218060    -0.22300
N1046       N  0.64441748  0.55888150  0.73051943    -0.02800
C1047       C  0.64053256  0.56167357  0.68626932    -0.00300
C1048       C  0.66921075  0.96627922  0.68593558    -0.23100
C1049       C  0.69361702  0.96103949  0.71411766    -0.23400
C1050       C  0.67775028  0.96563941  0.75743965    -0.00400
H1051       H  0.67301261  0.96522662  0.64978063     0.13400
H1052       H  0.71980277  0.95442609  0.70262557     0.13500
N1053       N  0.72925307  0.96561713  0.79744444    -0.02800
C1054       C  0.73468402  0.96096219  0.84123008    -0.00300
C1055       C  0.70465395  0.95679954  0.87040888    -0.23100
C1056       C  0.67970860  0.95813584  0.84338119    -0.23400
C1057       C  0.69533911  0.96326148  0.79826284    -0.00400
H1058       H  0.70118937  0.95374674  0.90726171     0.13400
H1059       H  0.65332364  0.95523595  0.85660450     0.13500
N1060       N  0.90171682  0.22129630  0.74706493    -0.02800
C1061       C  0.89583334  0.22040928  0.70403309    -0.00300
C1062       C  0.88816226  0.25279736  0.68236488    -0.23100
C1063       C  0.89042389  0.27443203  0.71227287    -0.23400
C1064       C  0.89924469  0.25480850  0.75195798    -0.00400
H1065       H  0.88137849  0.26005978  0.64846275     0.13400
H1066       H  0.88507219  0.30147701  0.70517217     0.13500
N1067       N  0.91449610  0.30128540  0.79267287    -0.02800
C1068       C  0.91651698  0.30381019  0.83665525    -0.00300
C1069       C  0.90904500  0.27353451  0.86461591    -0.23100
C1070       C  0.90264574  0.25149449  0.83714577    -0.23400
C1071       C  0.90568813  0.26899796  0.79276490    -0.00400
H1072       H  0.90720197  0.26832386  0.90140602     0.13400
H1073       H  0.89524358  0.22602458  0.84974978     0.13500
C1074       C  0.52818132  0.99911082  0.60899957     0.43100
N1075       N  0.50604607  0.51729388  0.55155755     0.02000
C1076       C  0.87899957  0.08725471  0.92636622    -0.05900
H1077       H  0.85274531  0.08621259  0.60780418     0.07500
C1078       C  0.84351255  0.49689985  0.61522770    -0.06300
Co1079     Co  0.96159411  0.06260827  0.50053193     0.74200
N1080       N  0.89589628  0.07024543  0.56225298    -0.25400
Co1081     Co  0.87863674  0.03957761  0.52200771     0.74100
C1082       C  0.83349601  0.97889616  0.64058119     0.43200
N1083       N  0.91523507  0.44466530  0.57685402     0.01600
N1084       N  0.86240869  0.00419633  0.57921960     0.01700
N1085       N  0.93339782  0.10164543  0.91461046    -0.46300
H1086       H  0.52196775  0.05741136  0.58812984     0.07500
N1087       N  0.92776938  0.07853788  0.55367955     0.02000
N1088       N  0.86453828  0.00354042  0.98216504     0.01700
C1089       C  0.84399761  0.98228111  0.93234649     0.43300
N1090       N  0.94869343  0.43998142  0.57019674    -0.24900
C1091       C  0.52509227  0.03959097  0.91615831    -0.05800
N1092       N  0.52735306  0.50905113  0.58178162    -0.46000
N1093       N  0.84521922  0.01090670  0.94961546    -0.46200
C1094       C  0.53878939  0.00781792  0.89955033     0.43100
N1095       N  0.92704846  0.07903638  0.95209680     0.02000
N1096       N  0.94705391  0.44728792  0.97265341    -0.24900
N1097       N  0.49929448  0.02459802  0.55353074    -0.25400
N1098       N  0.91357692  0.45122415  0.97731714     0.01600
H1099       H  0.98417739  0.41982640  0.93042435     0.07500
H1100       H  0.84347621  0.48152748  0.93816408     0.07500
N1101       N  0.89535206  0.07028519  0.96008820    -0.25500
N1102       N  0.87422267  0.97221520  0.58243063    -0.25100
N1103       N  0.51197346  0.51562180  0.95095356     0.02000
C1104       C  0.90604676  0.10444589  0.60949722     0.43400
C1105       C  0.95830322  0.41711394  0.60481001    -0.06300
N1106       N  0.87606706  0.97144709  0.98793271    -0.25100
H1107       H  0.83663761  0.47118385  0.62715230     0.07500
N1108       N  0.93474420  0.09876608  0.58077788    -0.46300
H1109       H  0.98423254  0.40772720  0.60781299     0.07500
C1110       C  0.92701242  0.41958884  0.92517956     0.43200
C1111       C  0.51721661  0.03202706  0.58415138    -0.05800
Co1112     Co  0.97811722  0.46490124  0.51203633     0.73800
N1113       N  0.90116729  0.42586224  0.61481493    -0.46000
C1114       C  0.90433418  0.10865500  0.89593559     0.43500
N1115       N  0.53472154  0.50900903  0.91577284    -0.46000
Co1116     Co  0.89008310  0.47700438  0.52825212     0.73900
C1117       C  0.84903857  0.50645034  0.94296623    -0.06300
C1118       C  0.87981525  0.08582101  0.59657954    -0.05900
N1119       N  0.50427749  0.02998284  0.95493738    -0.25400
N1120       N  0.83807879  0.00927580  0.61319203    -0.46200
H1121       H  0.85254824  0.08498774  0.92495937     0.07500
C1122       C  0.95790555  0.42802081  0.94043576    -0.06300
Cl1123     Cl  0.93484229  0.00859403  0.51557917    -0.49300
C1124       C  0.92669181  0.40783995  0.63492523     0.43200
H1125       H  0.52979954  0.06574708  0.90327734     0.07400
N1126       N  0.90059826  0.43477041  0.95002959    -0.46000
C1127       C  0.95120889  0.36646599  0.89703847    -0.05200
C1128       C  0.92427223  0.39160365  0.89917228     0.00800
C1129       C  0.89587560  0.38902682  0.87700300    -0.07800
C1130       C  0.89483736  0.36040452  0.85589514    -0.05200
C1131       C  0.92157886  0.33517134  0.85444435     0.00800
C1132       C  0.95044451  0.33831593  0.87513249    -0.07700
C1133       C  0.98047443  0.31214258  0.87427249     0.62700
H1134       H  0.97278187  0.36833085  0.91392242     0.13400
H1135       H  0.87221007  0.35678162  0.84220857     0.13400
C1136       C  0.86663760  0.41605569  0.87538679     0.62900
F1137       F  0.00668205  0.32128200  0.89399991    -0.22300
F1138       F  0.99314962  0.30903189  0.82971900    -0.19600
F1139       F  0.97052317  0.28100915  0.89788406    -0.19300
F1140       F  0.87914683  0.44787248  0.86083841    -0.19300
F1141       F  0.84770530  0.41491810  0.91820055    -0.19600
F1142       F  0.84507605  0.41129984  0.84547658    -0.22300
C1143       C  0.89141691  0.35216874  0.74738502    -0.05200
C1144       C  0.91891230  0.32855768  0.75432752     0.00800
C1145       C  0.94895944  0.33097868  0.72211370    -0.07800
C1146       C  0.95032679  0.35727915  0.68423098    -0.05200
C1147       C  0.92269052  0.38106620  0.67681220     0.00800
C1148       C  0.89254785  0.37840711  0.70940025    -0.07700
C1149       C  0.86139780  0.40270999  0.70475817     0.62700
H1150       H  0.86820112  0.34862152  0.77114701     0.13400
H1151       H  0.97334352  0.35860250  0.65968200     0.13400
C1152       C  0.98001318  0.30637469  0.72514255     0.62900
F1153       F  0.83637680  0.39680766  0.74226873    -0.22300
F1154       F  0.84754188  0.39878421  0.66679998    -0.19600
F1155       F  0.87037605  0.43577496  0.70083736    -0.19300
F1156       F  0.97679238  0.28192259  0.76369298    -0.19300
F1157       F  0.00814889  0.32419557  0.72536171    -0.19600
F1158       F  0.98560451  0.29010980  0.68744150    -0.22300
C1159       C  0.87190122  0.18275039  0.80956867    -0.05200
C1160       C  0.90256871  0.19212195  0.78263329     0.00800
C1161       C  0.93305259  0.17330324  0.79117897    -0.07800
C1162       C  0.93188424  0.14572254  0.82747396    -0.05200
C1163       C  0.90122362  0.13642974  0.85578576     0.00800
C1164       C  0.87042682  0.15553069  0.84636274    -0.07700
C1165       C  0.83603158  0.14845897  0.87452118     0.62700
H1166       H  0.84903333  0.19773705  0.80151211     0.12300
H1167       H  0.95529778  0.13111156  0.83389975     0.13400
C1168       C  0.96646325  0.18203791  0.76148491     0.62900
F1169       F  0.81101820  0.17310209  0.86228695    -0.22300
F1170       F  0.83763710  0.14788862  0.92020708    -0.19600
F1171       F  0.82614803  0.11786908  0.86754708    -0.19300
F1172       F  0.99397266  0.16600223  0.78103778    -0.19300
F1173       F  0.53712029  0.19570137  0.74725270    -0.19600
F1174       F  0.51752881  0.15494655  0.71685382    -0.22300
C1175       C  0.88033535  0.16188188  0.70035832    -0.05200
C1176       C  0.89970970  0.18988303  0.68117831     0.00800
C1177       C  0.92176318  0.18889780  0.63944525    -0.07800
C1178       C  0.92165853  0.16105823  0.61700341    -0.05200
C1179       C  0.90196352  0.13321630  0.63561921     0.00800
C1180       C  0.88187499  0.13294149  0.67901386    -0.07700
C1181       C  0.86303600  0.10216175  0.70362224     0.62700
H1182       H  0.86328812  0.16301800  0.73179529     0.13400
H1183       H  0.93727807  0.16108384  0.58409371     0.13400
C1184       C  0.52005865  0.19273363  0.61935931     0.62900
F1185       F  0.85086306  0.10505127  0.74860518    -0.22300
F1186       F  0.88466673  0.07315725  0.70361919    -0.19600
F1187       F  0.83557050  0.09875527  0.68239134    -0.19300
F1188       F  0.52084709  0.21083745  0.57569938    -0.19300
F1189       F  0.97292532  0.20458042  0.58935824    -0.19600
F1190       F  0.53149605  0.21259728  0.64635641    -0.22300
C1191       C  0.77440192  0.99834045  0.85700731    -0.05200
C1192       C  0.76700938  0.96510404  0.85617804     0.00800
C1193       C  0.78778874  0.93748909  0.87481697    -0.07800
C1194       C  0.81392534  0.94434111  0.89735233    -0.05200
C1195       C  0.81970206  0.97769375  0.90172954     0.00800
C1196       C  0.80086309  0.00541319  0.87866829    -0.07700
C1197       C  0.80744428  0.04238827  0.87729944     0.62700
H1198       H  0.75776778  0.01891779  0.84299197     0.13400
H1199       H  0.82897560  0.92302395  0.91305486     0.13400
C1200       C  0.78320263  0.90052533  0.87317299     0.62900
F1201       F  0.79011796  0.06399098  0.84618514    -0.22300
F1202       F  0.84178661  0.04705337  0.86430027    -0.19600
F1203       F  0.79661535  0.05165643  0.91967655    -0.19300
F1204       F  0.81315233  0.88622845  0.85229987    -0.19300
F1205       F  0.72160203  0.50488253  0.83338490    -0.19600
F1206       F  0.74533572  0.47761809  0.89283818    -0.22300
C1207       C  0.79197196  0.00302877  0.69849205    -0.05200
C1208       C  0.80662315  0.97367880  0.68132505     0.00800
C1209       C  0.79391372  0.94164492  0.70240615    -0.07800
C1210       C  0.77095890  0.94011514  0.74318827    -0.05200
C1211       C  0.75560975  0.96951579  0.75875005     0.00800
C1212       C  0.76541940  0.00167375  0.73528162    -0.07700
C1213       C  0.74851702  0.03523055  0.74642605     0.62700
H1214       H  0.80045146  0.02774024  0.68197900     0.13400
H1215       H  0.76219226  0.91592041  0.76117080     0.13400
C1216       C  0.80065209  0.90966076  0.68084789     0.62900
F1217       F  0.73604126  0.05319951  0.70824737    -0.22300
F1218       F  0.77237859  0.05396730  0.75802001    -0.19600
F1219       F  0.72171259  0.03154077  0.78170167    -0.19300
F1220       F  0.79984310  0.45796538  0.69392487    -0.19300
F1221       F  0.80043013  0.91733349  0.63425197    -0.19600
F1222       F  0.77570154  0.88694689  0.69798858    -0.22300
C1223       C  0.59012315  0.57624030  0.77251547    -0.05200
C1224       C  0.61770993  0.98112682  0.79213161     0.00800
C1225       C  0.59874956  0.95611125  0.82214654    -0.07800
C1226       C  0.57336815  0.96644307  0.85585498    -0.05200
C1227       C  0.56560124  0.00090903  0.86043182     0.00800
C1228       C  0.56237455  0.57149527  0.80763934    -0.07700
C1229       C  0.53131430  0.59603629  0.80339864     0.62700
H1230       H  0.59021177  0.59880885  0.74685580     0.13400
H1231       H  0.55961697  0.94682623  0.87922277     0.13400
C1232       C  0.60530933  0.91821201  0.82183099     0.62900
F1233       F  0.52941640  0.60926511  0.75809166    -0.22300
F1234       F  0.58421970  0.07366262  0.86505745    -0.19600
F1235       F  0.50162333  0.57985520  0.82034190    -0.19300
F1236       F  0.61308705  0.90238328  0.86398660    -0.19300
F1237       F  0.66447284  0.49577086  0.75493080    -0.19600
F1238       F  0.57625207  0.90519054  0.81385594    -0.22300
C1239       C  0.56545848  0.57591564  0.62278908    -0.05200
C1240       C  0.55359904  0.99266512  0.64131274     0.00800
C1241       C  0.55932216  0.96068750  0.66918136    -0.07800
C1242       C  0.58609473  0.95659149  0.69536752    -0.05200
C1243       C  0.60714023  0.98292350  0.69417614     0.00800
C1244       C  0.59125314  0.58371442  0.64483425    -0.07700
C1245       C  0.59881463  0.62092715  0.63902657     0.62700
H1246       H  0.55317759  0.59655424  0.60167944     0.13400
H1247       H  0.59222205  0.93202893  0.71490009     0.13400
C1248       C  0.53826126  0.93057345  0.67092043     0.62900
F1249       F  0.56869306  0.64036867  0.64723227    -0.22300
F1250       F  0.63354767  0.05761070  0.62154819    -0.19600
F1251       F  0.61993442  0.62725428  0.66844921    -0.19300
F1252       F  0.54547863  0.91837194  0.62998236    -0.19300
F1253       F  0.52867152  0.47677152  0.67301775    -0.19600
F1254       F  0.54522305  0.90414798  0.70519693    -0.22300
N1255       N  0.64409800  0.97971721  0.25533907    -0.02800
C1256       C  0.63968118  0.98861012  0.21119408    -0.00300
C1257       C  0.66839154  0.56921615  0.16166376    -0.23100
C1258       C  0.69057833  0.57507514  0.18934880    -0.23400
C1259       C  0.67418593  0.56801917  0.23376624    -0.00400
H1260       H  0.67247632  0.57326602  0.12475302     0.13400
H1261       H  0.71545251  0.58477120  0.17779654     0.13500
N1262       N  0.72346587  0.56529454  0.27732976    -0.02800
C1263       C  0.72582382  0.56711452  0.32119587    -0.00300
C1264       C  0.69472692  0.57647111  0.34441001    -0.23100
C1265       C  0.67176797  0.57923787  0.31433857    -0.23400
C1266       C  0.68976538  0.57125584  0.27391759    -0.00400
H1267       H  0.68922232  0.57994098  0.37975427     0.13400
H1268       H  0.64488932  0.58607928  0.32175667     0.13500
N1269       N  0.97755973  0.72082565  0.23055565    -0.02800
C1270       C  0.97216816  0.72096413  0.18710953    -0.00300
C1271       C  0.97489980  0.75328673  0.16242256    -0.23100
C1272       C  0.98338798  0.77335319  0.19107823    -0.23400
C1273       C  0.98447604  0.75308757  0.23331079    -0.00400
H1274       H  0.97208913  0.76123573  0.12687189     0.13400
H1275       H  0.98866015  0.79967938  0.18072003     0.13500
N1276       N  0.98933781  0.79747682  0.28324788    -0.02800
C1277       C  0.99567443  0.79651825  0.32647772    -0.00300
C1278       C  0.00296004  0.76344759  0.34605968    -0.23100
C1279       C  0.00129362  0.74352716  0.31368919    -0.23400
C1280       C  0.99185135  0.76478938  0.27543649    -0.00400
H1281       H  0.00754404  0.75437467  0.38068271     0.13400
H1282       H  0.00635265  0.71636822  0.31867986     0.13500
C1283       C  0.53092475  0.53550075  0.09802223     0.43100
N1284       N  0.50219681  0.99707755  0.06006269     0.02000
C1285       C  0.91644634  0.61100990  0.42048211    -0.05900
H1286       H  0.88601308  0.61322443  0.09943567     0.07500
C1287       C  0.85890417  0.95586590  0.12525941    -0.06300
Co1288     Co  0.98076224  0.55358575  0.00030426     0.74200
N1289       N  0.92120625  0.58473479  0.05593035    -0.25400
Co1290     Co  0.89323066  0.56608604  0.01404586     0.74100
C1291       C  0.82694001  0.52835676  0.13214694     0.43200
N1292       N  0.94107673  0.93531063  0.08299109     0.01600
N1293       N  0.86323849  0.53998508  0.07075970     0.01700
N1294       N  0.97372923  0.60333626  0.41170146    -0.46300
H1295       H  0.50532899  0.58857408  0.07633483     0.07500
N1296       N  0.95459170  0.57976193  0.05037676     0.02000
N1297       N  0.86948687  0.54332342  0.47402527     0.01700
C1298       C  0.83721751  0.53802872  0.42528031     0.43300
N1299       N  0.97254287  0.94474862  0.07577146    -0.24900
C1300       C  0.51217758  0.56995860  0.41144640    -0.05800
N1301       N  0.51813064  0.98368881  0.09487434    -0.46000
N1302       N  0.85243372  0.56059439  0.44236901    -0.46200
C1303       C  0.53446408  0.54420967  0.38953007     0.43100
N1304       N  0.95949069  0.58439661  0.44934717     0.02000
N1305       N  0.97403896  0.94676389  0.46986807    -0.24900
N1306       N  0.49762687  0.54667271  0.04415494    -0.25400
N1307       N  0.94236806  0.93780083  0.47813537     0.01600
H1308       H  0.01793561  0.93188949  0.42420971     0.07500
H1309       H  0.86395511  0.93464358  0.45357488     0.07500
N1310       N  0.92606462  0.58868244  0.45544820    -0.25500
N1311       N  0.86085557  0.50690463  0.07546763    -0.25100
N1312       N  0.50100457  0.99717735  0.45963818     0.02000
C1313       C  0.94325573  0.60815287  0.10586809     0.43400
C1314       C  0.98819975  0.92943825  0.11097339    -0.06300
N1315       N  0.86661322  0.51029596  0.47927646    -0.25100
H1316       H  0.86516882  0.92979359  0.13837409     0.07500
N1317       N  0.96865503  0.59337299  0.07926332    -0.46300
H1318       H  0.01458626  0.93161625  0.11360054     0.07500
C1319       C  0.96600281  0.91039314  0.42480366     0.43200
C1320       C  0.51005585  0.56199828  0.07340309    -0.05800
Co1321     Co  0.99061627  0.97689879  0.01568982     0.73800
N1322       N  0.93419904  0.91394606  0.12157621    -0.46000
C1323       C  0.94815765  0.62131772  0.39169202     0.43500
N1324       N  0.52217787  0.98448435  0.42742824    -0.46000
Co1325     Co  0.90814792  0.95252890  0.03559607     0.73900
C1326       C  0.86102363  0.96134317  0.45621561    -0.06300
C1327       C  0.91159738  0.60290981  0.08979702    -0.05900
N1328       N  0.49607951  0.55296380  0.45036431    -0.25400
N1329       N  0.84358426  0.55362215  0.10361741    -0.46200
H1330       H  0.89048003  0.61958218  0.41714994     0.07500
C1331       C  0.99103471  0.93073768  0.43672815    -0.06300
Cl1332     Cl  0.93383265  0.51620638  0.01380603    -0.49300
C1333       C  0.96248746  0.90901003  0.14186788     0.43200
H1334       H  0.51003064  0.59717200  0.40203574     0.07400
N1335       N  0.93661290  0.91592136  0.45236640    -0.46000
C1336       C  0.00547456  0.86436350  0.39743121    -0.05200
C1337       C  0.97310626  0.88160491  0.39880752     0.00800
C1338       C  0.94831423  0.87037928  0.37664573    -0.07800
C1339       C  0.95716270  0.84259930  0.35351322    -0.05200
C1340       C  0.98951389  0.82565563  0.35174296     0.00800
C1341       C  0.01404068  0.83606204  0.37501105    -0.07700
C1342       C  0.04811152  0.81640197  0.37968888     0.62700
H1343       H  0.02374992  0.87221163  0.41596495     0.13400
H1344       H  0.93817658  0.83289514  0.33804902     0.13400
C1345       C  0.91248750  0.88703616  0.37748467     0.62900
F1346       F  0.04334743  0.78841984  0.41353633    -0.22300
F1347       F  0.07101251  0.83616981  0.39154587    -0.19600
F1348       F  0.06266482  0.80556233  0.33946418    -0.19300
F1349       F  0.91371461  0.92183750  0.36471298    -0.19300
F1350       F  0.89460237  0.87971240  0.42089487    -0.19600
F1351       F  0.89475039  0.87538915  0.34779617    -0.22300
C1352       C  0.94890558  0.83749218  0.24489603    -0.05200
C1353       C  0.98252621  0.82776524  0.25150503     0.00800
C1354       C  0.00927402  0.84603281  0.22433820    -0.07800
C1355       C  0.00151310  0.87253615  0.18957316    -0.05200
C1356       C  0.96787192  0.88199406  0.18171668     0.00800
C1357       C  0.94084373  0.86511650  0.21159383    -0.07700
C1358       C  0.90362900  0.87597088  0.20939244     0.62700
H1359       H  0.92902002  0.82269496  0.26578895     0.13400
H1360       H  0.02208643  0.88593954  0.16823074     0.13400
C1361       C  0.04589135  0.83791910  0.23227011     0.62900
F1362       F  0.88252216  0.85964922  0.24630532    -0.22300
F1363       F  0.89440241  0.86811344  0.17023148    -0.19600
F1364       F  0.89830097  0.91053168  0.20985975    -0.19300
F1365       F  0.05390240  0.80327801  0.23756411    -0.19300
F1366       F  0.05032065  0.85001576  0.27100928    -0.19600
F1367       F  0.06844348  0.85319498  0.19627239    -0.22300
C1368       C  0.93983701  0.69914205  0.29888035    -0.05200
C1369       C  0.96950353  0.69421367  0.26860184     0.00800
C1370       C  0.99195373  0.66548109  0.27831850    -0.07800
C1371       C  0.98331912  0.64205977  0.31836217    -0.05200
C1372       C  0.95365039  0.64707913  0.34945530     0.00800
C1373       C  0.93188638  0.67690433  0.34004573    -0.07700
C1374       C  0.90110751  0.68711453  0.37270274     0.62700
H1375       H  0.92341617  0.72163428  0.29032198     0.12300
H1376       H  0.00003255  0.61960032  0.32581792     0.13400
C1377       C  0.02545731  0.66045762  0.24770497     0.62900
F1378       F  0.89300481  0.72176422  0.36401028    -0.22300
F1379       F  0.90719150  0.67964055  0.41741690    -0.19600
F1380       F  0.87335855  0.67073606  0.36729437    -0.19300
F1381       F  0.04661953  0.63512118  0.26822990    -0.19300
F1382       F  0.46961344  0.72057589  0.23924839    -0.19600
F1383       F  0.49317615  0.67137029  0.27002659    -0.22300
C1384       C  0.94061815  0.66913944  0.19028562    -0.05200
C1385       C  0.96591021  0.69096625  0.16731883     0.00800
C1386       C  0.98432208  0.68412404  0.12507510    -0.07800
C1387       C  0.97379798  0.65869928  0.10494496    -0.05200
C1388       C  0.94916306  0.63662870  0.12813951     0.00800
C1389       C  0.93358224  0.64058222  0.17262377    -0.07700
C1390       C  0.91171973  0.61367060  0.20228430     0.62700
H1391       H  0.92651525  0.67423874  0.22234934     0.13400
H1392       H  0.98654873  0.65478271  0.07146951     0.13400
C1393       C  0.45248203  0.72074500  0.11742428     0.62900
F1394       F  0.90230916  0.62063318  0.24619408    -0.22300
F1395       F  0.92990777  0.58246190  0.20505335    -0.19600
F1396       F  0.88248243  0.61172123  0.18391564    -0.19300
F1397       F  0.43663166  0.74946020  0.09516196    -0.19300
F1398       F  0.04076277  0.67608203  0.08778615    -0.19600
F1399       F  0.46740253  0.72927350  0.15190242    -0.22300
C1400       C  0.77041547  0.58591455  0.35565390    -0.05200
C1401       C  0.75647240  0.55887234  0.34304340     0.00800
C1402       C  0.76986328  0.52524815  0.35548614    -0.07800
C1403       C  0.79733787  0.52005814  0.38020218    -0.05200
C1404       C  0.81080327  0.54694197  0.39459135     0.00800
C1405       C  0.79777337  0.58088038  0.38058460    -0.07700
C1406       C  0.81252908  0.61202432  0.39039550     0.62700
H1407       H  0.75911196  0.61127194  0.34624456     0.13400
H1408       H  0.80757729  0.49427136  0.38943382     0.13400
C1409       C  0.75563090  0.49371238  0.34595830     0.62900
F1410       F  0.79708087  0.64207142  0.37048280    -0.22300
F1411       F  0.84659812  0.61168916  0.37249893    -0.19600
F1412       F  0.80829527  0.61222392  0.43686606    -0.19300
F1413       F  0.77985663  0.47774798  0.31714803    -0.19300
F1414       F  0.77190570  0.90005711  0.33304994    -0.19600
F1415       F  0.81584475  0.88842532  0.37183664    -0.22300
C1416       C  0.80303375  0.56476604  0.18982610    -0.05200
C1417       C  0.80085525  0.53469322  0.17239217     0.00800
C1418       C  0.77274632  0.51443255  0.19132513    -0.07800
C1419       C  0.74880206  0.52501542  0.22678997    -0.05200
C1420       C  0.75065447  0.55543779  0.24300429     0.00800
C1421       C  0.77797205  0.57618919  0.22332863    -0.07700
C1422       C  0.78127413  0.61134433  0.23388258     0.62700
H1423       H  0.82402216  0.58064869  0.17556615     0.13400
H1424       H  0.72744828  0.50996000  0.24164592     0.13400
C1425       C  0.76677018  0.48223734  0.17445234     0.62900
F1426       F  0.78573298  0.63417894  0.19352528    -0.22300
F1427       F  0.80949399  0.61076331  0.25556318    -0.19600
F1428       F  0.75300358  0.62318563  0.26082162    -0.19300
F1429       F  0.82802192  0.89602261  0.18915296    -0.19300
F1430       F  0.76781056  0.48835997  0.12761090    -0.19600
F1431       F  0.73529496  0.47009920  0.19319587    -0.22300
C1432       C  0.61531164  0.01928544  0.30386408    -0.05200
C1433       C  0.61489266  0.55296586  0.27245950     0.00800
C1434       C  0.61515321  0.52508818  0.30862537    -0.07800
C1435       C  0.58894667  0.52392172  0.34625302    -0.05200
C1436       C  0.56113150  0.54826479  0.34789675     0.00800
C1437       C  0.58942896  0.02927637  0.33754637    -0.07700
C1438       C  0.58791696  0.06552581  0.34641353     0.62700
H1439       H  0.63332999  0.03712535  0.28496784     0.13400
H1440       H  0.59015417  0.50322931  0.37458102     0.13400
C1441       C  0.64180740  0.49569742  0.30927582     0.62900
F1442       F  0.61420138  0.08360587  0.32022257    -0.22300
F1443       F  0.52910428  0.62434330  0.32853802    -0.19600
F1444       F  0.55779635  0.08221483  0.33527450    -0.19300
F1445       F  0.65969320  0.49533896  0.34513052    -0.19300
F1446       F  0.62485870  0.91789966  0.27690922    -0.19600
F1447       F  0.62592099  0.46552065  0.31584550    -0.22300
C1448       C  0.57280767  0.03347971  0.14343103    -0.05200
C1449       C  0.55638255  0.54095755  0.12640983     0.00800
C1450       C  0.57101811  0.51441608  0.15670446    -0.07800
C1451       C  0.59678083  0.52209694  0.17952172    -0.05200
C1452       C  0.60764192  0.55506454  0.17319681     0.00800
C1453       C  0.59977504  0.03005269  0.16886451    -0.07700
C1454       C  0.62015336  0.06090146  0.16564937     0.62700
H1455       H  0.56872835  0.05735425  0.12121106     0.13400
H1456       H  0.60984258  0.50210425  0.20080083     0.13400
C1457       C  0.56019308  0.47818195  0.16473664     0.62900
F1458       F  0.59825606  0.08805579  0.17645250    -0.22300
F1459       F  0.61220253  0.63050532  0.09627021    -0.19600
F1460       F  0.64422461  0.05587280  0.19494535    -0.19300
F1461       F  0.57128882  0.46351517  0.12624907    -0.19300
F1462       F  0.50007369  0.95890966  0.18618989    -0.19600
F1463       F  0.57383547  0.45831501  0.20084646    -0.22300
N1464       N  0.64383713  0.97272647  0.75628984    -0.02800
C1465       C  0.63920334  0.97378215  0.71255630    -0.00300
C1466       C  0.66953754  0.57215282  0.65778354    -0.23100
C1467       C  0.69208009  0.57709566  0.68561417    -0.23400
C1468       C  0.67614722  0.56886928  0.73015813    -0.00400
H1469       H  0.67321339  0.57722534  0.62088259     0.13400
H1470       H  0.71671700  0.58725456  0.67401940     0.13500
N1471       N  0.72549432  0.56800535  0.77278743    -0.02800
C1472       C  0.72886454  0.57083087  0.81586668    -0.00300
C1473       C  0.69769284  0.57821783  0.84050392    -0.23100
C1474       C  0.67395425  0.57913424  0.81164384    -0.23400
C1475       C  0.69163881  0.57206811  0.77051501    -0.00400
H1476       H  0.69262943  0.58110556  0.87607739     0.13400
H1477       H  0.64686056  0.58415915  0.82035139     0.13500
N1478       N  0.98750489  0.72046585  0.73072987    -0.02800
C1479       C  0.98801868  0.71875895  0.68585738    -0.00300
C1480       C  0.99622713  0.74945728  0.65925822    -0.23100
C1481       C  0.00201310  0.77049286  0.68823921    -0.23400
C1482       C  0.99603472  0.75253996  0.73214024    -0.00400
H1483       H  0.99846165  0.75565894  0.62248081     0.13400
H1484       H  0.01054148  0.79583146  0.67750191     0.13500
N1485       N  0.99705836  0.79978202  0.77866077    -0.02800
C1486       C  0.00216222  0.80088191  0.82190233    -0.00300
C1487       C  0.00898654  0.76843839  0.84435700    -0.23100
C1488       C  0.00818200  0.74665711  0.81392977    -0.23400
C1489       C  0.00007789  0.76632455  0.77394815    -0.00400
H1490       H  0.01333694  0.76131160  0.87945870     0.13400
H1491       H  0.01311906  0.71942638  0.82074816     0.13500
C1492       C  0.52910589  0.53707981  0.60034748     0.43100
N1493       N  0.49885780  0.99134406  0.55794696     0.02000
C1494       C  0.91484218  0.61480108  0.92221466    -0.05900
H1495       H  0.89176520  0.61722269  0.59207490     0.07500
C1496       C  0.85819796  0.95443966  0.62039343    -0.06300
Co1497     Co  0.98410054  0.55223666  0.49801068     0.74200
N1498       N  0.92585586  0.58486901  0.55344518    -0.25400
Co1499     Co  0.89688108  0.56447757  0.51379495     0.74100
C1500       C  0.83126239  0.52878929  0.63251898     0.43200
N1501       N  0.94209648  0.93473001  0.57583835     0.01600
N1502       N  0.86814989  0.53907578  0.57163505     0.01700
N1503       N  0.97190388  0.60524918  0.91412880    -0.46300
H1504       H  0.50188208  0.58998938  0.58281407     0.07500
N1505       N  0.95919201  0.57965670  0.54727890     0.02000
N1506       N  0.86748520  0.54554932  0.97191958     0.01700
C1507       C  0.84122357  0.54006263  0.91687734     0.43300
N1508       N  0.97377460  0.94367840  0.56769467    -0.24900
C1509       C  0.51720599  0.56459385  0.90796305    -0.05800
N1510       N  0.51607707  0.97517871  0.59031419    -0.46000
N1511       N  0.85331577  0.56279828  0.93738906    -0.46200
C1512       C  0.53888363  0.53866064  0.88636136     0.43100
N1513       N  0.95694740  0.58634983  0.95133351     0.02000
N1514       N  0.97528922  0.94348716  0.97813041    -0.24900
N1515       N  0.49420772  0.54923437  0.54859139    -0.25400
N1516       N  0.94377588  0.93410548  0.98539543     0.01600
H1517       H  0.01977284  0.93064685  0.93203569     0.07500
H1518       H  0.86887456  0.92916497  0.95618566     0.07500
N1519       N  0.92357770  0.59147356  0.95696732    -0.25500
N1520       N  0.86571231  0.50593822  0.57745023    -0.25100
N1521       N  0.50436922  0.99662056  0.96271208     0.02000
C1522       C  0.94955419  0.61352512  0.59686682     0.43400
C1523       C  0.99044691  0.92661868  0.60086484    -0.06300
N1524       N  0.86526126  0.51248077  0.97613695    -0.25100
H1525       H  0.86292673  0.92756626  0.63058739     0.07500
N1526       N  0.97414142  0.59619593  0.57220620    -0.46300
H1527       H  0.01716744  0.92824681  0.60209708     0.07500
C1528       C  0.96876918  0.90781228  0.93154025     0.43200
C1529       C  0.50702436  0.56375350  0.57823515    -0.05800
Co1530     Co  0.99108874  0.97784383  0.50933575     0.73800
N1531       N  0.93603427  0.91197450  0.61330500    -0.46000
C1532       C  0.94709074  0.62425952  0.89360115     0.43500
N1533       N  0.52450700  0.98253613  0.93081448    -0.46000
Co1534     Co  0.90808708  0.95454309  0.53054067     0.73900
C1535       C  0.86422135  0.95581716  0.95833396    -0.06300
C1536       C  0.91717698  0.60627266  0.58380229    -0.05900
N1537       N  0.50111106  0.54792545  0.94672218    -0.25400
N1538       N  0.84819705  0.55349349  0.60339918    -0.46200
H1539       H  0.88902058  0.62347842  0.91820730     0.07500
C1540       C  0.99307836  0.92808615  0.94494915    -0.06300
Cl1541     Cl  0.93726213  0.51458989  0.51303834    -0.49300
C1542       C  0.96525669  0.90547270  0.63158888     0.43200
H1543       H  0.51503669  0.59177756  0.89819571     0.07400
N1544       N  0.93885730  0.91251256  0.95860994    -0.46000
C1545       C  0.00967585  0.86571317  0.89773637    -0.05200
C1546       C  0.97679400  0.88173660  0.90106355     0.00800
C1547       C  0.95331729  0.87309984  0.87461209    -0.07800
C1548       C  0.96337511  0.84766682  0.84734960    -0.05200
C1549       C  0.99599379  0.83112151  0.84508297     0.00800
C1550       C  0.01996143  0.84094662  0.86978812    -0.07700
C1551       C  0.05683879  0.82702754  0.86758332     0.62700
H1552       H  0.02781298  0.87243235  0.91748241     0.13400
H1553       H  0.94517362  0.83940841  0.82906363     0.13400
C1554       C  0.91783124  0.89037907  0.87489685     0.62900
F1555       F  0.07787124  0.85386752  0.85697171    -0.22300
F1556       F  0.06648549  0.80619514  0.83511306    -0.19600
F1557       F  0.06199175  0.80889102  0.90970033    -0.19300
F1558       F  0.91974019  0.92528434  0.86580376    -0.19300
F1559       F  0.89866522  0.88114302  0.91700443    -0.19600
F1560       F  0.90110982  0.88121690  0.84227531    -0.22300
C1561       C  0.95535375  0.83263426  0.73425687    -0.05200
C1562       C  0.98845353  0.82841838  0.74512292     0.00800
C1563       C  0.01326519  0.85033172  0.72026204    -0.07800
C1564       C  0.00423277  0.87513634  0.68428570    -0.05200
C1565       C  0.97130449  0.87911074  0.67211286     0.00800
C1566       C  0.94596476  0.85796965  0.69877231    -0.07700
C1567       C  0.90902663  0.86223212  0.69125183     0.62700
H1568       H  0.93701087  0.81539545  0.75390005     0.13400
H1569       H  0.02330691  0.89177022  0.66557121     0.13400
C1570       C  0.04934270  0.84749713  0.73108392     0.62900
F1571       F  0.88876281  0.84064487  0.72331674    -0.22300
F1572       F  0.90612854  0.85521577  0.64866714    -0.19600
F1573       F  0.89680045  0.89516924  0.69495832    -0.19300
F1574       F  0.06222883  0.81406954  0.73526653    -0.19300
F1575       F  0.04939047  0.85955758  0.77124289    -0.19600
F1576       F  0.07088061  0.86651212  0.69738548    -0.22300
C1577       C  0.94665822  0.70248419  0.79863902    -0.05200
C1578       C  0.97630428  0.69492808  0.76938639     0.00800
C1579       C  0.99510993  0.66357585  0.78005009    -0.07800
C1580       C  0.98329334  0.64091472  0.81959776    -0.05200
C1581       C  0.95413320  0.64873431  0.84989268     0.00800
C1582       C  0.93526889  0.68028135  0.83903511    -0.07700
C1583       C  0.90386290  0.69149141  0.86972342     0.62700
H1584       H  0.93279114  0.72657640  0.78956399     0.12300
H1585       H  0.99745030  0.61677436  0.82748925     0.13400
C1586       C  0.02791472  0.65359523  0.75106324     0.62900
F1587       F  0.89361197  0.72521353  0.85631215    -0.22300
F1588       F  0.91039948  0.68801763  0.91414055    -0.19600
F1589       F  0.87725699  0.67226711  0.86773315    -0.19300
F1590       F  0.04891873  0.63187435  0.77721407    -0.19300
F1591       F  0.49449293  0.68506418  0.77778863    -0.19600
F1592       F  0.46654770  0.71775998  0.72586306    -0.22300
C1593       C  0.94814243  0.67571837  0.68137972    -0.05200
C1594       C  0.98001561  0.68929598  0.66648017     0.00800
C1595       C  0.00174177  0.67724908  0.62973228    -0.07800
C1596       C  0.98970010  0.65380303  0.60750895    -0.05200
C1597       C  0.95763281  0.64033649  0.62169347     0.00800
C1598       C  0.93663541  0.65097259  0.66013319    -0.07700
C1599       C  0.90223357  0.63694751  0.67893917     0.62700
H1600       H  0.93164935  0.68562144  0.70890729     0.13400
H1601       H  0.00619513  0.64553183  0.57868860     0.13400
C1602       C  0.43049447  0.73203108  0.61170482     0.62900
F1603       F  0.89000474  0.64536187  0.72152629    -0.22300
F1604       F  0.90463238  0.60188675  0.68347024    -0.19600
F1605       F  0.87900081  0.65044920  0.65004836    -0.19300
F1606       F  0.45081111  0.74221203  0.63937941    -0.19300
F1607       F  0.03963334  0.70611248  0.56948070    -0.19600
F1608       F  0.45131096  0.72502752  0.57259944    -0.22300
C1609       C  0.77937164  0.58843687  0.84021546    -0.05200
C1610       C  0.76016217  0.56189072  0.83618978     0.00800
C1611       C  0.77030045  0.52797821  0.85333153    -0.07800
C1612       C  0.79864661  0.52205592  0.87620545    -0.05200
C1613       C  0.81619302  0.54872321  0.88433704     0.00800
C1614       C  0.80782416  0.58253827  0.86334992    -0.07700
C1615       C  0.82831478  0.61246328  0.86472200     0.62700
H1616       H  0.77119930  0.61410988  0.82626360     0.13400
H1617       H  0.80585524  0.49604954  0.88970620     0.13400
C1618       C  0.75207702  0.49699365  0.84999643     0.62900
F1619       F  0.81951656  0.64088499  0.83440261    -0.22300
F1620       F  0.86259316  0.60417707  0.85268472    -0.19600
F1621       F  0.82247788  0.62110949  0.90793248    -0.19300
F1622       F  0.77294187  0.47766993  0.82160883    -0.19300
F1623       F  0.75739802  0.89623105  0.84938533    -0.19600
F1624       F  0.77598368  0.88321076  0.91718225    -0.22300
C1625       C  0.80256794  0.56925940  0.68228154    -0.05200
C1626       C  0.80367059  0.53655809  0.67035679     0.00800
C1627       C  0.77743154  0.51473316  0.69246731    -0.07800
C1628       C  0.75302271  0.52583434  0.72700545    -0.05200
C1629       C  0.75235216  0.55825986  0.73844610     0.00800
C1630       C  0.77667970  0.58098558  0.71438559    -0.07700
C1631       C  0.77539410  0.61831341  0.71868982     0.62700
H1632       H  0.82156190  0.58671639  0.66503768     0.13400
H1633       H  0.73339664  0.50949234  0.74507791     0.13400
C1634       C  0.77377879  0.48035481  0.67989316     0.62900
F1635       F  0.77398264  0.63780434  0.67617775    -0.22300
F1636       F  0.80455983  0.62492469  0.73426611    -0.19600
F1637       F  0.74744259  0.62841685  0.74777229    -0.19300
F1638       F  0.83135063  0.89354972  0.69020514    -0.19300
F1639       F  0.77408757  0.48334773  0.63334793    -0.19600
F1640       F  0.74343151  0.46669764  0.70087325    -0.22300
C1641       C  0.60996998  0.01533500  0.79561016    -0.05200
C1642       C  0.61758363  0.55213398  0.76861855     0.00800
C1643       C  0.61706771  0.52160235  0.80045872    -0.07800
C1644       C  0.59120501  0.51842065  0.83851510    -0.05200
C1645       C  0.56416416  0.54330316  0.84356404     0.00800
C1646       C  0.58371904  0.02603163  0.82823359    -0.07700
C1647       C  0.57578849  0.06388851  0.82658941     0.62700
H1648       H  0.62501597  0.03374595  0.77213631     0.13400
H1649       H  0.59199521  0.49585840  0.86421282     0.13400
C1650       C  0.64220408  0.49136956  0.79531859     0.62900
F1651       F  0.59409229  0.08272692  0.78906051    -0.22300
F1652       F  0.53344866  0.62277846  0.82607576    -0.19600
F1653       F  0.54168549  0.07163335  0.82327362    -0.19300
F1654       F  0.66072910  0.48544873  0.83128536    -0.19300
F1655       F  0.63181877  0.91034469  0.78908958    -0.19600
F1656       F  0.62454227  0.46295669  0.79637320    -0.22300
C1657       C  0.57331220  0.01965408  0.64339106    -0.05200
C1658       C  0.55601466  0.54244889  0.62644148     0.00800
C1659       C  0.57249934  0.51567339  0.65427613    -0.07800
C1660       C  0.59882852  0.52353372  0.67591745    -0.05200
C1661       C  0.60895473  0.55675868  0.67009879     0.00800
C1662       C  0.60029296  0.01532097  0.66892012    -0.07700
C1663       C  0.62077165  0.04604381  0.66653422     0.62700
H1664       H  0.56888443  0.04431957  0.62320153     0.13400
H1665       H  0.61297813  0.50351050  0.69567213     0.13400
C1666       C  0.56340056  0.47895040  0.66031152     0.62900
F1667       F  0.59954132  0.07157451  0.68350269    -0.22300
F1668       F  0.61386864  0.63134605  0.59469807    -0.19600
F1669       F  0.64784933  0.03953999  0.69093942    -0.19300
F1670       F  0.57351486  0.46649275  0.61988571    -0.19300
F1671       F  0.50398855  0.94026518  0.67935018    -0.19600
F1672       F  0.57942937  0.45836114  0.69369096    -0.22300
loop_ 
_geom_bond_atom_site_label_1 
_geom_bond_atom_site_label_2 
_geom_bond_distance 
_geom_bond_site_symmetry_2 
_ccdc_geom_bond_type 
N1            C2   1.352       .  A
N1          C423   1.360       .  A
N1          C597   1.442       .  S
C2          C421   1.372       .  A
C2          C616   1.464       .  S
C3            C4   1.371       .  A
C3          C420   1.378       .  A
C3            H6   1.081       .  S
C4            C5   1.386       .  A
C4            H7   1.078       .  S
C5          N419   1.359       .  A
C5           C12   1.482       .  S
N8           C12   1.357       .  A
N8            C9   1.349       .  A
N8          C166   1.441       .  S
C9           C10   1.378       .  A
C9          C147   1.467       .  S
C10          C11   1.376       .  A
C10          H13   1.082       .  S
C11          C12   1.387       .  A
C11          H14   1.080       .  S
N15          C19   1.367       .  A
N15          C16   1.358       .  A
N15         C115   1.443       .  S
C16          C17   1.377       .  A
C16         C131   1.481       .  S
C17          C18   1.367       .  A
C17          H20   1.082       .  S
C18          C19   1.390       .  A
C18          H21   1.074       .  S
C19          C26   1.504       .  S
N22          C26   1.365       .  A
N22          C23   1.357       .  A
N22          C99   1.443       .  S
C23          C24   1.377       .  A
C23          C86   1.482       .  S
C24          C25   1.374       .  A
C24          H27   1.082       .  S
C25          C26   1.390       .  A
C25          H28   1.076       .  S
C29         N465   1.352       .  A
C29          C66   1.454       .  S
C29         C195   1.473       .  S
N30          N47   1.325       .  A
N30         N470   1.316       .  A
N30        Co903   2.077   1_455  S
C31          N56   1.342       .  A
C31          C69   1.469       .  S
C31          H76   1.075       .  S
H32          C73   1.079       .  S
C33         N475   1.338       .  A
C33         C455   1.462       .  S
C33          H62   1.075       .  S
Co34         N42   2.076       .  S
Co34        N888   2.056       .  S
Co34       N1119   2.085   1_554  S
Co34        N259   2.070   1_554  S
Co34        Cl78   2.442       .  S
N35          C73   1.344       .  A
N35          N42   1.317       .  A
N35         Co36   2.079       .  S
Co36         N39   2.103       .  S
Co36        N265   2.101   1_554  S
Co36        N252   2.065   1_554  S
Co36        Cl78   2.451       .  S
C37          N75   1.358       .  A
C37         C163   1.509       .  S
C37         C451   1.472   1_545  S
N38          N45   1.318       .  A
N38          N68   1.323       .  A
N38         Co71   2.080       .  S
N39          N57   1.317       .  A
N39          N75   1.326       .  A
N40          C69   1.354       .  A
N40          N50   1.325       .  A
H41          C66   1.081   1_655  S
N42          N63   1.317       .  A
N43          N61   1.318       .  A
N43          N48   1.322       .  A
N43        Co245   2.077       .  S
C44          N48   1.350       .  A
C44         C150   1.485       .  S
C44         C490   1.464       .  S
N45          C60   1.344       .  A
N45         Co67   2.100       .  S
C46          N74   1.336   1_455  A
C46          C49   1.464       .  S
C46          H80   1.077       .  S
N47         C447   1.353       .  A
C49         N488   1.355       .  A
C49         C182   1.492       .  S
N50          N56   1.318       .  A
N50        Co243   2.088       .  S
N51          C77   1.341       .  A
N51          N53   1.318       .  A
N51        Co276   2.079       .  S
N52          C66   1.332   1_655  A
N52         N448   1.317   1_655  A
N52        Co870   2.057   1_554  S
N53          N81   1.323       .  A
N53        Co280   2.085       .  S
H54          C77   1.082       .  S
H55          C72   1.079       .  S
N56        Co245   2.093       .  S
N57         C451   1.341   1_545  A
N57        Co489   2.087   1_545  S
N58          N70   1.326       .  A
N58         N492   1.317       .  A
N58       Co1112   2.100   1_455  S
C59          N63   1.348       .  A
C59          C73   1.469       .  S
C59         C134   1.482       .  S
C60          C79   1.472       .  S
C60          H64   1.080       .  S
N61         C490   1.336       .  A
N61        Co698   2.076   1_545  S
C65          N81   1.350       .  A
C65          C77   1.463       .  S
C65          C83   1.481       .  S
Co67        N866   2.075       .  S
Co67        N260   2.072   1_554  S
Co67       N1103   2.103   1_554  S
Co67       Cl496   2.461       .  S
N68          C79   1.349       .  A
C69         C118   1.498       .  S
N70         C467   1.358       .  A
Co71        N262   2.094   1_554  S
Co71        N475   2.087       .  S
Co71        N688   2.079   1_554  S
Co71       Cl496   2.441       .  S
C72         N479   1.336       .  A
C72         C462   1.460       .  S
N74         N476   1.318   1_655  A
N74       Co1079   2.076       .  S
Cl78       Co485   2.451   1_545  S
Cl78       Co489   2.449   1_545  S
C79         C102   1.499       .  S
C82          C83   1.404       .  A
C82          C87   1.406       .  A
C82          H89   1.084       .  S
C83          C84   1.416       .  A
C84          C85   1.402       .  A
C84          C91   1.518       .  S
C85          C86   1.402       .  A
C85          H90   1.080       .  S
C86          C87   1.421       .  A
C87          C88   1.522       .  S
C88          F92   1.383       .  S
C88          F93   1.380       .  S
C88          F94   1.383       .  S
C91          F95   1.384       .  S
C91          F96   1.381       .  S
C91          F97   1.385       .  S
C98          C99   1.397       .  A
C98         C103   1.408       .  A
C98         H105   1.082       .  S
C99         C100   1.413       .  A
C100        C101   1.408       .  A
C100        C107   1.514       .  S
C101        C102   1.408       .  A
C101        H106   1.080       .  S
C102        C103   1.428       .  A
C103        C104   1.518       .  S
C104        F108   1.385       .  S
C104        F109   1.382       .  S
C104        F110   1.384       .  S
C107        F111   1.383       .  S
C107        F112   1.378       .  S
C107        F113   1.384       .  S
C114        C115   1.399       .  A
C114        C119   1.410       .  A
C114        H121   1.083       .  S
C115        C116   1.412       .  A
C116        C117   1.409       .  A
C116        C123   1.516       .  S
C117        C118   1.410       .  A
C117        H122   1.083       .  S
C118        C119   1.427       .  A
C119        C120   1.518       .  S
C120        F124   1.385       .  S
C120        F125   1.383       .  S
C120        F126   1.380       .  S
C123        F127   1.383       .  S
C123        F964   1.383       .  S
C123        F965   1.377       .  S
F128        C959   1.375       .  S
F129        C959   1.381       .  S
C130        C131   1.406       .  A
C130        C135   1.413       .  A
C130        H137   1.082       .  S
C131        C132   1.419       .  A
C132        C133   1.394       .  A
C132        C975   1.523       .  S
C133        C134   1.402       .  A
C133        H138   1.085       .  S
C134        C135   1.420       .  A
C135        C136   1.517       .  S
C136        F140   1.385       .  S
C136        F141   1.384       .  S
C136        F142   1.381       .  S
C139        C968   1.521       .  S
C139        F143   1.378       .  S
C139        F145   1.385       .  S
C139        F980   1.382       .  S
F144        C975   1.383       .  S
C146        C147   1.397       .  A
C146        C151   1.403       .  A
C146        H153   1.082       .  S
C147        C148   1.414       .  A
C148        C149   1.399       .  A
C148        C155   1.518   1_545  S
C149        C150   1.406       .  A
C149        H154   1.081   1_545  S
C150        C151   1.422       .  A
C151        C152   1.518       .  S
C152        F156   1.385       .  S
C152        F157   1.384       .  S
C152        F158   1.382       .  S
C155        F159   1.383       .  S
C155        F578   1.377       .  S
C155        F579   1.384       .  S
F160        C573   1.382       .  S
F161        C573   1.384       .  S
C162        C163   1.411       .  A
C162        C167   1.406       .  A
C162        H169   1.084       .  S
C163        C164   1.432       .  A
C164        C165   1.409       .  A
C164        C171   1.513   1_545  S
C165        C166   1.394       .  A
C165        H170   1.081       .  S
C166        C167   1.413       .  A
C167        C168   1.517       .  S
C168        F172   1.383       .  S
C168        F173   1.383       .  S
C168        F174   1.381       .  S
C171        F176   1.382       .  S
C171        F177   1.385       .  S
C171        F593   1.375       .  S
F175        C589   1.380       .  S
C178        C183   1.406       .  A
C178        C597   1.398       .  A
C178        H185   1.083       .  S
C179        N419   1.443       .  S
C179        C180   1.415       .  A
C179        C596   1.399       .  A
C180        C181   1.405       .  A
C180        C187   1.514   1_545  S
C181        C182   1.407       .  A
C181        H186   1.084   1_545  S
C182        C601   1.424       .  A
C183        C600   1.430       .  A
C183        C184   1.520       .  S
C184        F188   1.386       .  S
C184        F190   1.381       .  S
C184        F607   1.383       .  S
C187        F191   1.381       .  S
C187        F193   1.384       .  S
C187        F610   1.381       .  S
F189        C602   1.382       .  S
F192        C605   1.381       .  S
C194        C199   1.397       .  A
C194        C613   1.409       .  A
C194        H201   1.079       .  S
C195        C196   1.415       .  A
C195        C612   1.405       .  A
C196        C197   1.402       .  A
C196        C203   1.518   1_545  S
C197        C198   1.402       .  A
C197        H202   1.082       .  S
C198        C617   1.414       .  A
C198        C420   1.472       .  S
C199        C616   1.408       .  A
C199        C200   1.520       .  S
C200        F204   1.385       .  S
C200        F206   1.376       .  S
C200        F623   1.383       .  S
C203        F207   1.381       .  S
C203        F209   1.385       .  S
C203        F626   1.384       .  S
F205        C618   1.382       .  S
F208        C621   1.383       .  S
N210        C632   1.360       .  A
N210        C211   1.354       .  A
N210        C806   1.442       .  S
C211        C630   1.375       .  A
C211        C825   1.471       .  S
C212        C629   1.378       .  A
C212        C213   1.370       .  A
C212        H215   1.081       .  S
C213        C214   1.385       .  A
C213        H216   1.080       .  S
C214        N628   1.359       .  A
C214        C221   1.478       .  S
N217        C221   1.358       .  A
N217        C218   1.353       .  A
N217        C375   1.444       .  S
C218        C219   1.381       .  A
C218        C356   1.471       .  S
C219        C220   1.372       .  A
C219        H222   1.082       .  S
C220        C221   1.383       .  A
C220        H223   1.081       .  S
N224        C228   1.364       .  A
N224        C225   1.355       .  A
N224        C324   1.443       .  S
C225        C226   1.374       .  A
C225        C340   1.473       .  S
C226        C227   1.367       .  A
C226        H229   1.082       .  S
C227        C228   1.391       .  A
C227        H230   1.072       .  S
C228        C235   1.501       .  S
N231        C235   1.362       .  A
N231        C232   1.356       .  A
N231        C308   1.440       .  S
C232        C233   1.379       .  A
C232        C295   1.483       .  S
C233        C234   1.376       .  A
C233        H236   1.082       .  S
C234        C235   1.389       .  A
C234        H237   1.077       .  S
C238        N674   1.354       .  A
C238        C275   1.457       .  S
C238        C404   1.484       .  S
N239        N256   1.322       .  A
N239        N679   1.317       .  A
N239      Co1112   2.080   1_455  S
C240        N265   1.344       .  A
C240        C278   1.472       .  S
C240        H285   1.075       .  S
H241        C282   1.078       .  S
C242        N684   1.334       .  A
C242        C664   1.462       .  S
C242        H271   1.073       .  S
Co243      N1097   2.078       .  S
Co243       N251   2.074       .  S
Co243       N910   2.085       .  S
Co243      Cl287   2.438       .  S
N244        C282   1.344       .  A
N244        N251   1.317       .  A
N244       Co245   2.085       .  S
Co245       N248   2.094       .  S
Co245      Cl287   2.460       .  S
C246        N284   1.355       .  A
C246        C660   1.462   1_545  S
C246        C372   1.491       .  S
N247        N254   1.317       .  A
N247        N277   1.323       .  A
N247       Co280   2.081       .  S
N248        N266   1.318       .  A
N248        N284   1.325       .  A
N249        C278   1.351       .  A
N249        N259   1.322       .  A
H250        C275   1.081       .  S
N251        N272   1.317       .  A
N252        N270   1.318       .  A
N252        N257   1.317       .  A
C253        N257   1.344       .  A
C253        C699   1.467   1_545  S
C253        C359   1.483       .  S
N254        C269   1.342       .  A
N254       Co276   2.088       .  S
C255        N283   1.337   1_455  A
C255        C258   1.467       .  S
C255        H289   1.075       .  S
N256        C656   1.350       .  A
C258        N697   1.355       .  A
C258        C391   1.497       .  S
N259        N265   1.317       .  A
N260        C286   1.339       .  A
N260        N262   1.319       .  A
N261        C275   1.332   1_655  A
N261        N657   1.317   1_655  A
N261      Co1079   2.061       .  S
N262        N290   1.325       .  A
H263        C286   1.081       .  S
H264        C281   1.080       .  S
N266        C660   1.339   1_545  A
N266       Co698   2.080   1_545  S
N267        N279   1.322       .  A
N267        N701   1.317       .  A
N267       Co903   2.090   1_456  S
C268        N272   1.349       .  A
C268        C282   1.471       .  S
C268        C343   1.487       .  S
C269        C288   1.469       .  S
C269        H273   1.080       .  S
N270        C699   1.342   1_545  A
N270       Co489   2.087   1_546  S
C274        N290   1.352       .  A
C274        C286   1.459       .  S
C274        C292   1.483       .  S
Co276      N1075   2.075       .  S
Co276       N894   2.086       .  S
Co276      Cl705   2.462       .  S
N277        C288   1.350       .  A
C278        C327   1.496       .  S
N279        C676   1.354       .  A
Co280       N684   2.079       .  S
Co280       N479   2.076       .  S
Co280      Cl705   2.434       .  S
C281        N688   1.338       .  A
C281        C671   1.462       .  S
N283        N685   1.318   1_655  A
N283       Co870   2.083       .  S
Cl287      Co694   2.453   1_545  S
Cl287      Co698   2.444   1_545  S
C288        C311   1.496       .  S
C291        C292   1.406       .  A
C291        C296   1.407       .  A
C291        H298   1.084       .  S
C292        C293   1.416       .  A
C293        C294   1.403       .  A
C293        C300   1.519       .  S
C294        C295   1.402       .  A
C294        H299   1.078       .  S
C295        C296   1.419       .  A
C296        C297   1.520       .  S
C297        F301   1.384       .  S
C297        F302   1.380       .  S
C297        F303   1.383       .  S
C300        F304   1.384       .  S
C300        F305   1.381       .  S
C300        F306   1.385       .  S
C307        C308   1.395       .  A
C307        C312   1.405       .  A
C307        H314   1.082       .  S
C308        C309   1.413       .  A
C309        C310   1.407       .  A
C309        C316   1.516       .  S
C310        C311   1.408       .  A
C310        H315   1.080       .  S
C311        C312   1.426       .  A
C312        C313   1.515       .  S
C313        F317   1.386       .  S
C313        F318   1.383       .  S
C313        F319   1.383       .  S
C316        F320   1.383       .  S
C316        F321   1.378       .  S
C316        F322   1.385       .  S
C323        C324   1.400       .  A
C323        C328   1.411       .  A
C323        H330   1.083       .  S
C324        C325   1.412       .  A
C325        C326   1.406       .  A
C325        C332   1.516       .  S
C326        C327   1.408       .  A
C326        H331   1.083       .  S
C327        C328   1.425       .  A
C328        C329   1.517       .  S
C329        F333   1.385       .  S
C329        F334   1.383       .  S
C329        F335   1.380       .  S
C332        F336   1.383       .  S
C332       F1173   1.383       .  S
C332       F1174   1.377       .  S
F337       C1168   1.381       .  S
F338       C1168   1.381       .  S
C339        C340   1.402       .  A
C339        C344   1.411       .  A
C339        H346   1.083       .  S
C340        C341   1.416       .  A
C341        C342   1.395       .  A
C341       C1184   1.525       .  S
C342        C343   1.406       .  A
C342        H347   1.084       .  S
C343        C344   1.421       .  A
C344        C345   1.517       .  S
C345        F349   1.385       .  S
C345        F350   1.383       .  S
C345        F351   1.381       .  S
C348       C1177   1.523       .  S
C348        F352   1.382       .  S
C348       F1189   1.385       .  S
C348        F354   1.383       .  S
F353       C1184   1.384       .  S
C355        C356   1.397       .  A
C355        C360   1.398       .  A
C355        H362   1.083       .  S
C356        C357   1.415       .  A
C357        C358   1.404       .  A
C357        C364   1.519   1_545  S
C358        C359   1.406       .  A
C358        H363   1.083   1_545  S
C359        C360   1.425       .  A
C360        C361   1.522       .  S
C361        F365   1.385       .  S
C361        F366   1.382       .  S
C361        F367   1.384       .  S
C364        F368   1.383       .  S
C364        F787   1.380       .  S
C364        F788   1.384       .  S
F369        C782   1.380       .  S
F370        C782   1.384       .  S
C371        C372   1.405       .  A
C371        C376   1.405       .  A
C371        H378   1.085       .  S
C372        C373   1.425       .  A
C373        C374   1.408       .  A
C373        C380   1.520   1_545  S
C374        C375   1.401       .  A
C374        H379   1.081   1_545  S
C375        C376   1.416       .  A
C376        C377   1.516       .  S
C377        F381   1.385       .  S
C377        F382   1.382       .  S
C377        F383   1.380       .  S
C380        F802   1.380       .  S
C380        F385   1.383       .  S
C380        F386   1.386       .  S
F384        C798   1.377       .  S
C387        C806   1.401       .  A
C387        C392   1.414       .  A
C387        H394   1.083       .  S
C388        N628   1.448       .  S
C388        C805   1.396       .  A
C388        C389   1.419       .  A
C389        C390   1.410       .  A
C389        C396   1.515   1_545  S
C390        C391   1.410       .  A
C390        H395   1.086   1_545  S
C391        C810   1.424       .  A
C392        C809   1.428       .  A
C392        C393   1.518       .  S
C393        F397   1.385       .  S
C393        F816   1.383       .  S
C393        F399   1.381       .  S
C396        F400   1.383       .  S
C396        F819   1.380       .  S
C396        F402   1.383       .  S
F398        C811   1.380       .  S
F401        C814   1.380       .  S
C403        C822   1.408       .  A
C403        C408   1.403       .  A
C403        H410   1.079       .  S
C404        C821   1.408       .  A
C404        C405   1.419       .  A
C405        C406   1.406       .  A
C405        C412   1.519   1_545  S
C406        C407   1.401       .  A
C406        H411   1.083   1_545  S
C407        C826   1.413       .  A
C407        C629   1.471       .  S
C408        C825   1.410       .  A
C408        C409   1.519       .  S
C409        F413   1.385       .  S
C409        F832   1.383       .  S
C409        F415   1.379       .  S
C412        F416   1.382       .  S
C412        F835   1.384       .  S
C412        F418   1.385       .  S
F414        C827   1.380       .  S
F417        C830   1.383       .  S
N419        C420   1.352       .  A
C421        C422   1.368       .  A
C421        H424   1.082       .  S
C422        C423   1.392       .  A
C422        H425   1.072       .  S
C423        C430   1.495       .  S
N426        C430   1.361       .  A
N426        C427   1.354       .  A
N426        C584   1.442       .  S
C427        C428   1.375       .  A
C427        C565   1.465       .  S
C428        C429   1.368       .  A
C428        H431   1.082       .  S
C429        C430   1.389       .  A
C429        H432   1.078       .  S
N433        C437   1.366       .  A
N433        C434   1.363       .  A
N433        C533   1.443       .  S
C434        C435   1.381       .  A
C434        C549   1.498       .  S
C435        C436   1.375       .  A
C435        H438   1.081       .  S
C436        C437   1.385       .  A
C436        H439   1.079       .  S
C437        C444   1.501       .  S
N440        C444   1.367       .  A
N440        C441   1.358       .  A
N440        C517   1.444       .  S
C441        C442   1.376       .  A
C441        C504   1.481       .  S
C442        C443   1.375       .  A
C442        H445   1.082       .  S
C443        C444   1.389       .  A
C443        H446   1.077       .  S
C447        C484   1.459       .  S
C447        C613   1.484       .  S
N448        N465   1.324       .  A
N448      Co1321   2.083   1_445  S
C449        N474   1.343       .  A
C449        C487   1.479       .  S
C449        H494   1.074       .  S
H450        C491   1.078       .  S
C451        H480   1.074       .  S
Co452      N1306   2.064   1_556  S
Co452       N460   2.076   1_556  S
Co452      N1537   2.082       .  S
Co452       N677   2.085       .  S
Co452      Cl496   2.441   1_556  S
N453        C491   1.348       .  A
N453        N460   1.317       .  A
N453       Co454   2.102       .  S
Co454       N457   2.097       .  S
Co454       N683   2.095   1_554  S
Co454       N670   2.092   1_554  S
Co454      Cl496   2.461       .  S
C455        N493   1.356       .  A
C455        C581   1.493       .  S
N456        N463   1.319       .  A
N456        N486   1.326       .  A
N456       Co489   2.094       .  S
N457        N475   1.319       .  A
N457        N493   1.328       .  A
N458        C487   1.353       .  A
N458        N468   1.321       .  A
H459        C484   1.081       .  S
N460        N481   1.320       .  A
N461        N479   1.318       .  A
N461        N466   1.321       .  A
N461       Co663   2.069       .  S
C462        N466   1.347       .  A
C462        C568   1.478       .  S
N463        C478   1.340       .  A
N463       Co485   2.083       .  S
C464        N492   1.335       .  A
C464        C467   1.462       .  S
C464        H498   1.074       .  S
C467        C600   1.495       .  S
N468        N474   1.316       .  A
N468       Co661   2.073       .  S
N469        C495   1.340       .  A
N469        N471   1.317       .  A
N469       Co694   2.084       .  S
N470        C484   1.329       .  A
N470      Co1288   2.062   1_455  S
N471        N499   1.323       .  A
N471       Co698   2.084       .  S
H472        C495   1.081       .  S
H473        C490   1.080   1_565  S
N474       Co663   2.102       .  S
N476        N488   1.325       .  A
N476      Co1530   2.093   1_445  S
C477        N481   1.349       .  A
C477        C491   1.475       .  S
C477        C552   1.494       .  S
C478        C497   1.460       .  S
C478        H482   1.080       .  S
C483        N499   1.350       .  A
C483        C495   1.472       .  S
C483        C501   1.498       .  S
Co485      N1284   2.077       .  S
Co485       N678   2.080   1_554  S
Co485      N1521   2.084   1_554  S
N486        C497   1.353       .  A
C487        C536   1.508       .  S
Co489       N680   2.089   1_554  S
N492      Co1497   2.069   1_455  S
C497        C520   1.489       .  S
C500        C501   1.408       .  A
C500        C505   1.403       .  A
C500        H507   1.081       .  S
C501        C502   1.427       .  A
C502        C503   1.408       .  A
C502        C509   1.521       .  S
C503        C504   1.401       .  A
C503        H508   1.083       .  S
C504        C505   1.414       .  A
C505        C506   1.517       .  S
C506        F510   1.383       .  S
C506        F511   1.384       .  S
C506        F512   1.377       .  S
C509        F513   1.383       .  S
C509        F514   1.383       .  S
C509        F515   1.385       .  S
C516        C517   1.400       .  A
C516        C521   1.403       .  A
C516        H523   1.080       .  S
C517        C518   1.419       .  A
C518        C519   1.407       .  A
C518        C525   1.512       .  S
C519        C520   1.405       .  A
C519        H524   1.084       .  S
C520        C521   1.417       .  A
C521        C522   1.511       .  S
C522        F526   1.386       .  S
C522        F527   1.378       .  S
C522        F528   1.384       .  S
C525        F529   1.376       .  S
C525        F530   1.383       .  S
C525        F531   1.383       .  S
C532        C533   1.400       .  A
C532        C537   1.410       .  A
C532        H539   1.082       .  S
C533        C534   1.410       .  A
C534        C535   1.405       .  A
C534        C541   1.512       .  S
C535        C536   1.413       .  A
C535        H540   1.084       .  S
C536        C537   1.428       .  A
C537        C538   1.515       .  S
C538        F542   1.385       .  S
C538        F543   1.382       .  S
C538        F544   1.383       .  S
C541        F545   1.383       .  S
C541       F1382   1.376       .  S
C541       F1383   1.379       .  S
F546       C1377   1.383       .  S
F547       C1377   1.380       .  S
C548        C549   1.406       .  A
C548        C553   1.413       .  A
C548        H555   1.075       .  S
C549        C550   1.422       .  A
C550        C551   1.405       .  A
C550       C1393   1.522       .  S
C551        C552   1.405       .  A
C551        H556   1.083       .  S
C552        C553   1.419       .  A
C553        C554   1.518       .  S
C554        F558   1.385       .  S
C554        F559   1.384       .  S
C554        F560   1.380       .  S
C557       C1386   1.521   1_455  S
C557        F561   1.383       .  S
C557       F1398   1.385       .  S
C557        F563   1.380       .  S
F562       C1393   1.385       .  S
C564        C565   1.400       .  A
C564        C569   1.401       .  A
C564        H571   1.084       .  S
C565        C566   1.410       .  A
C566        C567   1.400       .  A
C566        C573   1.518       .  S
C567        C568   1.406       .  A
C567        H572   1.083       .  S
C568        C569   1.422       .  A
C569        C570   1.522       .  S
C570        F574   1.385       .  S
C570        F575   1.382       .  S
C570        F576   1.383       .  S
C573        F577   1.382       .  S
C580        C581   1.408       .  A
C580        C585   1.410       .  A
C580        H587   1.085       .  S
C581        C582   1.425       .  A
C582        C583   1.405       .  A
C582        C589   1.520       .  S
C583        C584   1.401       .  A
C583        H588   1.083       .  S
C584        C585   1.416       .  A
C585        C586   1.515       .  S
C586        F590   1.383       .  S
C586        F591   1.383       .  S
C586        F592   1.379       .  S
C589        F594   1.383       .  S
C589        F595   1.386       .  S
C596        C601   1.406       .  A
C596        H603   1.083       .  S
C597        C598   1.412       .  A
C598        C599   1.405       .  A
C598        C605   1.513       .  S
C599        C600   1.408       .  A
C599        H604   1.084       .  S
C601        C602   1.517       .  S
C602        F606   1.385       .  S
C602        F608   1.383   1_455  S
C605        F609   1.384       .  S
C605        F611   1.382       .  S
C612        C617   1.397       .  A
C612        H619   1.083       .  S
C613        C614   1.422       .  A
C614        C615   1.404       .  A
C614        C621   1.520       .  S
C615        C616   1.399       .  A
C615        H620   1.082       .  S
C617        C618   1.520       .  S
C618        F622   1.385       .  S
C618        F624   1.383       .  S
C621        F625   1.383       .  S
C621        F627   1.385       .  S
N628        C629   1.355       .  A
C630        C631   1.370       .  A
C630        H633   1.082       .  S
C631        C632   1.387       .  A
C631        H634   1.072       .  S
C632        C639   1.486       .  S
N635        C639   1.361       .  A
N635        C636   1.355       .  A
N635        C793   1.443       .  S
C636        C637   1.380       .  A
C636        C774   1.476       .  S
C637        C638   1.374       .  A
C637        H640   1.082       .  S
C638        C639   1.385       .  A
C638        H641   1.080       .  S
N642        C646   1.365       .  A
N642        C643   1.361       .  A
N642        C742   1.438       .  S
C643        C644   1.380       .  A
C643        C758   1.495       .  S
C644        C645   1.374       .  A
C644        H647   1.080       .  S
C645        C646   1.386       .  A
C645        H648   1.078       .  S
C646        C653   1.505       .  S
N649        C653   1.365       .  A
N649        C650   1.356       .  A
N649        C726   1.441       .  S
C650        C651   1.375       .  A
C650        C713   1.479       .  S
C651        C652   1.374       .  A
C651        H654   1.082       .  S
C652        C653   1.392       .  A
C652        H655   1.073       .  S
C656        C693   1.463       .  S
C656        C822   1.487       .  S
N657        N674   1.326       .  A
N657      Co1530   2.088   1_445  S
C658        N683   1.341       .  A
C658        C696   1.468       .  S
C658        H703   1.077       .  S
H659        C700   1.079       .  S
C660        H689   1.075       .  S
Co661      N1515   2.058       .  S
Co661       N669   2.103       .  S
Co661      N1328   2.110       .  S
Co661      Cl705   2.437       .  S
N662        C700   1.345       .  A
N662        N669   1.318       .  A
N662       Co663   2.085       .  S
Co663       N666   2.111       .  S
Co663      Cl705   2.467       .  S
C664        N702   1.361       .  A
C664        C790   1.505       .  S
N665        N672   1.318       .  A
N665        N695   1.326       .  A
N665       Co698   2.082       .  S
N666        N684   1.318       .  A
N666        N702   1.331       .  A
N667        C696   1.353       .  A
N667        N677   1.326       .  A
H668        C693   1.080       .  S
N669        N690   1.324       .  A
N670        N688   1.319       .  A
N670        N675   1.325       .  A
C671        N675   1.352       .  A
C671        C777   1.490       .  S
N672        C687   1.338       .  A
N672       Co694   2.087       .  S
C673        N701   1.342       .  A
C673        C676   1.470       .  S
C673        H707   1.076       .  S
C676        C809   1.497       .  S
N677        N683   1.318       .  A
N678        C704   1.341       .  A
N678        N680   1.317       .  A
N679        C693   1.337       .  A
N679      Co1497   2.073   1_455  S
N680        N708   1.323       .  A
H681        C704   1.081       .  S
H682        C699   1.080       .  S
N685        N697   1.327       .  A
N685      Co1321   2.093   1_446  S
C686        N690   1.354       .  A
C686        C700   1.468       .  S
C686        C761   1.492       .  S
C687        C706   1.462       .  S
C687        H691   1.080       .  S
C692        N708   1.351       .  A
C692        C704   1.469       .  S
C692        C710   1.499       .  S
Co694      N1493   2.079       .  S
Co694      N1312   2.087       .  S
N695        C706   1.351       .  A
C696        C745   1.494       .  S
N701      Co1288   2.081   1_456  S
C706        C729   1.488       .  S
C709        C710   1.408       .  A
C709        C714   1.404       .  A
C709        H716   1.081       .  S
C710        C711   1.427       .  A
C711        C712   1.408       .  A
C711        C718   1.520       .  S
C712        C713   1.400       .  A
C712        H717   1.083       .  S
C713        C714   1.415       .  A
C714        C715   1.518       .  S
C715        F719   1.384       .  S
C715        F720   1.378       .  S
C715        F721   1.383       .  S
C718        F722   1.382       .  S
C718        F723   1.383       .  S
C718        F724   1.385       .  S
C725        C726   1.403       .  A
C725        C730   1.411       .  A
C725        H732   1.081       .  S
C726        C727   1.417       .  A
C727        C728   1.401       .  A
C727        C734   1.517       .  S
C728        C729   1.402       .  A
C728        H733   1.084       .  S
C729        C730   1.421       .  A
C730        C731   1.518       .  S
C731        F735   1.385       .  S
C731        F736   1.382       .  S
C731        F737   1.383       .  S
C734        F738   1.377       .  S
C734        F739   1.384       .  S
C734        F740   1.382       .  S
C741        C742   1.399       .  A
C741        C746   1.405       .  A
C741        H748   1.083       .  S
C742        C743   1.411       .  A
C743        C744   1.410       .  A
C743        C750   1.516       .  S
C744        C745   1.411       .  A
C744        H749   1.083       .  S
C745        C746   1.424       .  A
C746        C747   1.519       .  S
C747        F751   1.385       .  S
C747        F752   1.384       .  S
C747        F753   1.380       .  S
C750        F754   1.382       .  S
C750       F1591   1.384       .  S
C750       F1592   1.381       .  S
F755       C1586   1.381       .  S
F756       C1586   1.381       .  S
C757        C758   1.405       .  A
C757        C762   1.414       .  A
C757        H764   1.081       .  S
C758        C759   1.422       .  A
C759        C760   1.406       .  A
C759       C1602   1.523       .  S
C760        C761   1.402       .  A
C760        H765   1.083       .  S
C761        C762   1.421       .  A
C762        C763   1.518       .  S
C763        F767   1.385       .  S
C763        F768   1.383       .  S
C763        F769   1.380       .  S
C766       C1595   1.524       .  S
C766        F770   1.380       .  S
C766       F1607   1.383       .  S
C766        F772   1.384       .  S
F771       C1602   1.380       .  S
C773        C774   1.401       .  A
C773        C778   1.406       .  A
C773        H780   1.083       .  S
C774        C775   1.414       .  A
C775        C776   1.404       .  A
C775        C782   1.519       .  S
C776        C777   1.408       .  A
C776        H781   1.084       .  S
C777        C778   1.423       .  A
C778        C779   1.520       .  S
C779        F783   1.385       .  S
C779        F784   1.383       .  S
C779        F785   1.383       .  S
C782        F786   1.383       .  S
C789        C790   1.412       .  A
C789        C794   1.413       .  A
C789        H796   1.084       .  S
C790        C791   1.431       .  A
C791        C792   1.404       .  A
C791        C798   1.520       .  S
C792        C793   1.394       .  A
C792        H797   1.083       .  S
C793        C794   1.413       .  A
C794        C795   1.515       .  S
C795        F799   1.383       .  S
C795        F800   1.382       .  S
C795        F801   1.382       .  S
C798        F803   1.383       .  S
C798        F804   1.386       .  S
C805        C810   1.401       .  A
C805        H812   1.086       .  S
C806        C807   1.413       .  A
C807        C808   1.399       .  A
C807        C814   1.516       .  S
C808        C809   1.407       .  A
C808        H813   1.085       .  S
C810        C811   1.516       .  S
C811        F815   1.386       .  S
C811        F817   1.383   1_455  S
C814        F818   1.384       .  S
C814        F820   1.383       .  S
C821        C826   1.399       .  A
C821        H828   1.079       .  S
C822        C823   1.423       .  A
C823        C824   1.403       .  A
C823        C830   1.520       .  S
C824        C825   1.398       .  A
C824        H829   1.080       .  S
C826        C827   1.526       .  S
C827        F831   1.385       .  S
C827        F833   1.381       .  S
C830        F834   1.383       .  S
C830        F836   1.385       .  S
N837       C1259   1.362       .  A
N837        C838   1.351       .  A
N837       C1433   1.452       .  S
C838       C1257   1.378       .  A
C838       C1452   1.459       .  S
C839       C1256   1.372       .  A
C839        C840   1.369       .  A
C839        H842   1.082       .  S
C840        C841   1.392       .  A
C840        H843   1.072       .  S
C841       N1255   1.361       .  A
C841        C848   1.492       .  S
N844        C848   1.361       .  A
N844        C845   1.352       .  A
N844       C1002   1.438       .  S
C845        C846   1.376       .  A
C845        C983   1.468       .  S
C846        C847   1.370       .  A
C846        H849   1.082       .  S
C847        C848   1.387       .  A
C847        H850   1.074       .  S
N851        C855   1.369       .  A
N851        C852   1.360       .  A
N851        C951   1.444       .  S
C852        C853   1.379       .  A
C852        C967   1.489       .  S
C853        C854   1.373       .  A
C853        H856   1.082       .  S
C854        C855   1.388       .  A
C854        H857   1.076       .  S
C855        C862   1.503       .  S
N858        C862   1.370       .  A
N858        C859   1.363       .  A
N858        C935   1.446       .  S
C859        C860   1.380       .  A
C859        C922   1.493       .  S
C860        C861   1.373       .  A
C860        H863   1.082       .  S
C861        C862   1.387       .  A
C861        H864   1.078       .  S
C865       N1301   1.350   1_545  A
C865        C902   1.456       .  S
C865       C1031   1.475       .  S
N866        N883   1.323       .  A
N866       N1306   1.316       .  A
C867        N892   1.339       .  A
C867        C905   1.475       .  S
C867        H912   1.074       .  S
H868        C909   1.079       .  S
C869       N1311   1.344       .  A
C869       C1291   1.474       .  S
C869        H898   1.076       .  S
Co870       N878   2.081   1_556  S
Co870      N1095   2.076       .  S
Co870      Cl914   2.435   1_556  S
N871        C909   1.346       .  A
N871        N878   1.317       .  A
N871       Co872   2.084       .  S
Co872       N875   2.099       .  S
Co872      N1101   2.104   1_554  S
Co872      N1088   2.070   1_554  S
Co872      Cl914   2.463       .  S
C873        N911   1.357   1_565  A
C873       C1287   1.461       .  S
C873        C999   1.495       .  S
N874        N881   1.318       .  A
N874        N904   1.326       .  A
N874       Co907   2.091       .  S
N875        N893   1.318   1_545  A
N875        N911   1.328       .  A
N876        C905   1.357       .  A
N876        N886   1.324       .  A
H877        C902   1.081       .  S
N878        N899   1.319       .  A
N879        N897   1.319   1_545  A
N879        N884   1.322       .  A
N879      Co1081   2.079       .  S
C880        N884   1.349   1_565  A
C880       C1326   1.460       .  S
C880        C986   1.479       .  S
N881        C896   1.340       .  A
N881       Co903   2.090       .  S
C882        N910   1.341       .  A
C882        C885   1.474       .  S
C882        H916   1.075       .  S
N883       C1283   1.350       .  A
C885       N1324   1.355   1_545  A
C885       C1018   1.505       .  S
N886        N892   1.314       .  A
N886      Co1079   2.085       .  S
N887        C913   1.342       .  A
N887        N889   1.321       .  A
N887      Co1112   2.090       .  S
N888        C902   1.335       .  A
N888       N1284   1.316   1_545  A
N889        N917   1.328       .  A
N889      Co1116   2.106       .  S
H890        C913   1.082       .  S
H891        C908   1.080       .  S
N892      Co1081   2.084       .  S
N893       C1287   1.336       .  A
N893      Co1325   2.081       .  S
N894        N906   1.326       .  A
N894       N1328   1.319       .  A
C895        N899   1.349       .  A
C895        C909   1.471       .  S
C895        C970   1.489       .  S
C896        C915   1.467       .  S
C896        H900   1.081       .  S
N897       C1326   1.336       .  A
N897      Co1534   2.077       .  S
C901        N917   1.354       .  A
C901        C913   1.464       .  S
C901        C919   1.492       .  S
Co903      N1096   2.081   1_554  S
Co903     Cl1332   2.450       .  S
N904        C915   1.354       .  A
C905        C954   1.508       .  S
N906       C1303   1.353       .  A
Co907      N1098   2.098   1_554  S
Co907      N1311   2.100       .  S
Co907      N1524   2.086   1_554  S
Co907     Cl1332   2.451       .  S
C908       N1315   1.341       .  A
C908       C1298   1.470       .  S
N910       N1312   1.316   1_545  A
Cl914     Co1321   2.459   1_545  S
Cl914     Co1325   2.439   1_545  S
C915        C938   1.501       .  S
C918        C919   1.404       .  A
C918        C923   1.408       .  A
C918        H925   1.084       .  S
C919        C920   1.418       .  A
C920        C921   1.411       .  A
C920        C927   1.517       .  S
C921        C922   1.404       .  A
C921        H926   1.077       .  S
C922        C923   1.424       .  A
C923        C924   1.521       .  S
C924        F928   1.384       .  S
C924        F929   1.381       .  S
C924        F930   1.384       .  S
C927        F931   1.383       .  S
C927        F932   1.382       .  S
C927        F933   1.385       .  S
C934        C935   1.401       .  A
C934        C939   1.410       .  A
C934        H941   1.082       .  S
C935        C936   1.411       .  A
C936        C937   1.408       .  A
C936        C943   1.512       .  S
C937        C938   1.409       .  A
C937        H942   1.080       .  S
C938        C939   1.425       .  A
C939        C940   1.518       .  S
C940        F944   1.385       .  S
C940        F945   1.383       .  S
C940        F946   1.383       .  S
C943        F947   1.376       .  S
C943        F948   1.381       .  S
C943        F949   1.385   1_655  S
C950        C951   1.398       .  A
C950        C955   1.411       .  A
C950        H957   1.082       .  S
C951        C952   1.411       .  A
C952        C953   1.405       .  A
C952        C959   1.511       .  S
C953        C954   1.412       .  A
C953        H958   1.083       .  S
C954        C955   1.431       .  A
C955        C956   1.516       .  S
C956        F960   1.385       .  S
C956        F961   1.382       .  S
C956        F962   1.383       .  S
C959        F963   1.383       .  S
C966        C967   1.407       .  A
C966        C971   1.414       .  A
C966        H973   1.078       .  S
C967        C968   1.419       .  A
C968        C969   1.398       .  A
C969        C970   1.404       .  A
C969        H974   1.085       .  S
C970        C971   1.420       .  A
C971        C972   1.519       .  S
C972        F976   1.385       .  S
C972        F977   1.383       .  S
C972        F978   1.382       .  S
C975        F979   1.381       .  S
C975        F981   1.385       .  S
C982        C983   1.399       .  A
C982        C987   1.400   1_565  A
C982        H989   1.083   1_565  S
C983        C984   1.413       .  A
C984        C985   1.401       .  A
C984        C991   1.518       .  S
C985        C986   1.407       .  A
C985        H990   1.084       .  S
C986        C987   1.421   1_565  A
C987        C988   1.521       .  S
C988        F992   1.385       .  S
C988        F993   1.382       .  S
C988        F994   1.383       .  S
C991        F995   1.383       .  S
C991       F1414   1.381       .  S
C991       F1415   1.384       .  S
F996       C1409   1.376       .  S
F997       C1409   1.383       .  S
C998        C999   1.410   1_545  A
C998       C1003   1.410       .  A
C998       H1005   1.085       .  S
C999       C1000   1.428       .  A
C1000      C1001   1.403       .  A
C1000      C1007   1.519       .  S
C1001      C1002   1.396       .  A
C1001      H1006   1.082       .  S
C1002      C1003   1.414   1_565  A
C1003      C1004   1.516       .  S
C1004      F1008   1.384       .  S
C1004      F1009   1.383       .  S
C1004      F1010   1.381       .  S
C1007      F1429   1.379       .  S
C1007      F1012   1.383       .  S
C1007      F1013   1.385       .  S
F1011      C1425   1.379       .  S
C1014      C1433   1.401       .  A
C1014      C1019   1.411       .  A
C1014      H1021   1.081       .  S
C1015      N1255   1.441       .  S
C1015      C1432   1.397   1_565  A
C1015      C1016   1.413       .  A
C1016      C1017   1.402       .  A
C1016      C1023   1.517       .  S
C1017      C1018   1.411   1_565  A
C1017      H1022   1.084       .  S
C1018      C1437   1.430       .  A
C1019      C1436   1.423       .  A
C1019      C1020   1.514       .  S
C1020      F1024   1.385       .  S
C1020      F1443   1.381       .  S
C1020      F1026   1.383       .  S
C1023      F1027   1.383       .  S
C1023      F1446   1.382       .  S
C1023      F1029   1.382       .  S
F1025      C1438   1.383       .  S
F1028      C1441   1.380       .  S
C1030      C1449   1.406       .  A
C1030      C1035   1.394       .  A
C1030      H1037   1.082       .  S
C1031      C1448   1.407       .  A
C1031      C1032   1.417   1_545  A
C1032      C1033   1.397       .  A
C1032      C1039   1.519       .  S
C1033      C1034   1.396       .  A
C1033      H1038   1.078       .  S
C1034      C1453   1.412   1_565  A
C1034      C1256   1.463       .  S
C1035      C1452   1.411       .  A
C1035      C1036   1.522       .  S
C1036      F1040   1.384       .  S
C1036      F1459   1.383       .  S
C1036      F1042   1.382       .  S
C1039      F1043   1.382       .  S
C1039      F1462   1.384       .  S
C1039      F1045   1.383       .  S
F1041      C1454   1.383       .  S
F1044      C1457   1.384       .  S
N1046      C1468   1.358       .  A
N1046      C1047   1.349       .  A
N1046      C1642   1.445       .  S
C1047      C1466   1.377       .  A
C1047      C1661   1.460       .  S
C1048      C1465   1.371       .  A
C1048      C1049   1.368       .  A
C1048      H1051   1.082       .  S
C1049      C1050   1.392       .  A
C1049      H1052   1.072       .  S
C1050      N1464   1.361       .  A
C1050      C1057   1.493       .  S
N1053      C1057   1.360       .  A
N1053      C1054   1.347       .  A
N1053      C1211   1.437       .  S
C1054      C1055   1.373       .  A
C1054      C1192   1.462       .  S
C1055      C1056   1.373       .  A
C1055      H1058   1.082       .  S
C1056      C1057   1.390       .  A
C1056      H1059   1.073       .  S
N1060      C1064   1.369       .  A
N1060      C1061   1.359       .  A
N1060      C1160   1.442       .  S
C1061      C1062   1.378       .  A
C1061      C1176   1.489       .  S
C1062      C1063   1.371       .  A
C1062      H1065   1.081       .  S
C1063      C1064   1.387       .  A
C1063      H1066   1.076       .  S
C1064      C1071   1.505       .  S
N1067      C1071   1.369       .  A
N1067      C1068   1.360       .  A
N1067      C1144   1.444       .  S
C1068      C1069   1.377       .  A
C1068      C1131   1.490       .  S
C1069      C1070   1.374       .  A
C1069      H1072   1.082       .  S
C1070      C1071   1.388       .  A
C1070      H1073   1.075       .  S
C1074      N1510   1.350       .  A
C1074      C1111   1.465   1_565  S
C1074      C1240   1.489       .  S
N1075      N1092   1.322       .  A
N1075      N1515   1.316       .  A
C1076      N1101   1.344       .  A
C1076      C1114   1.477       .  S
C1076      H1121   1.075       .  S
H1077      C1118   1.078       .  S
C1078      N1520   1.343       .  A
C1078      C1500   1.477       .  S
C1078      H1107   1.075       .  S
Co1079     N1087   2.075       .  S
Co1079    Cl1123   2.437       .  S
N1080      C1118   1.346       .  A
N1080      N1087   1.317       .  A
N1080     Co1081   2.093       .  S
Co1081     N1084   2.086       .  S
Co1081    Cl1123   2.460       .  S
C1082      N1120   1.355   1_565  A
C1082      C1496   1.465       .  S
C1082      C1208   1.494       .  S
N1083      N1090   1.319       .  A
N1083      N1113   1.327       .  A
N1083     Co1116   2.096       .  S
N1084      N1102   1.317   1_545  A
N1084      N1120   1.324       .  A
N1085      C1114   1.353       .  A
N1085      N1095   1.323       .  A
H1086      C1111   1.081       .  S
N1087      N1108   1.319       .  A
N1088      N1106   1.317   1_545  A
N1088      N1093   1.318       .  A
C1089      N1093   1.346   1_565  A
C1089      C1535   1.464       .  S
C1089      C1195   1.481       .  S
N1090      C1105   1.342       .  A
N1090     Co1112   2.095       .  S
C1091      N1119   1.339       .  A
C1091      C1094   1.476       .  S
C1091      H1125   1.074       .  S
N1092      C1492   1.350       .  A
C1094      N1533   1.355   1_545  A
C1094      C1227   1.506       .  S
N1095      N1101   1.316       .  A
N1096      C1122   1.338       .  A
N1096      N1098   1.318       .  A
N1097      C1111   1.338       .  A
N1097      N1493   1.317   1_545  A
N1098      N1126   1.327       .  A
H1099      C1122   1.081       .  S
H1100      C1117   1.080       .  S
N1102      C1496   1.337       .  A
N1102     Co1534   2.076       .  S
N1103      N1115   1.329       .  A
N1103      N1537   1.318       .  A
C1104      N1108   1.348       .  A
C1104      C1118   1.473       .  S
C1104      C1179   1.488       .  S
C1105      C1124   1.467       .  S
C1105      H1109   1.080       .  S
N1106      C1535   1.337       .  A
N1106     Co1325   2.072   1_556  S
C1110      N1126   1.354       .  A
C1110      C1122   1.466       .  S
C1110      C1128   1.495       .  S
Co1112    Cl1541   2.458       .  S
N1113      C1124   1.354       .  A
C1114      C1163   1.506       .  S
N1115      C1512   1.358       .  A
Co1116     N1520   2.103       .  S
Co1116     N1315   2.086       .  S
Co1116    Cl1541   2.451       .  S
C1117      N1524   1.337       .  A
C1117      C1507   1.470       .  S
N1119      N1521   1.316   1_545  A
Cl1123    Co1530   2.457   1_545  S
Cl1123    Co1534   2.439   1_545  S
C1124      C1147   1.503       .  S
C1127      C1128   1.407       .  A
C1127      C1132   1.406       .  A
C1127      H1134   1.080       .  S
C1128      C1129   1.422       .  A
C1129      C1130   1.411       .  A
C1129      C1136   1.519       .  S
C1130      C1131   1.403       .  A
C1130      H1135   1.080       .  S
C1131      C1132   1.417       .  A
C1132      C1133   1.520       .  S
C1133      F1137   1.385   1_655  S
C1133      F1138   1.379       .  S
C1133      F1139   1.381       .  S
C1136      F1140   1.384       .  S
C1136      F1141   1.382       .  S
C1136      F1142   1.385       .  S
C1143      C1144   1.399       .  A
C1143      C1148   1.409       .  A
C1143      H1150   1.080       .  S
C1144      C1145   1.416       .  A
C1145      C1146   1.409       .  A
C1145      C1152   1.516       .  S
C1146      C1147   1.410       .  A
C1146      H1151   1.082       .  S
C1147      C1148   1.425       .  A
C1148      C1149   1.517       .  S
C1149      F1153   1.385       .  S
C1149      F1154   1.383       .  S
C1149      F1155   1.383       .  S
C1152      F1156   1.379       .  S
C1152      F1157   1.384   1_655  S
C1152      F1158   1.383       .  S
C1159      C1160   1.399       .  A
C1159      C1164   1.410       .  A
C1159      H1166   1.082       .  S
C1160      C1161   1.407       .  A
C1161      C1162   1.410       .  A
C1161      C1168   1.515       .  S
C1162      C1163   1.414       .  A
C1162      H1167   1.082       .  S
C1163      C1164   1.428       .  A
C1164      C1165   1.516       .  S
C1165      F1169   1.385       .  S
C1165      F1170   1.382       .  S
C1165      F1171   1.379       .  S
C1168      F1172   1.381       .  S
C1175      C1176   1.406       .  A
C1175      C1180   1.412       .  A
C1175      H1182   1.080       .  S
C1176      C1177   1.419       .  A
C1177      C1178   1.401       .  A
C1178      C1179   1.405       .  A
C1178      H1183   1.083       .  S
C1179      C1180   1.419       .  A
C1180      C1181   1.518       .  S
C1181      F1185   1.385       .  S
C1181      F1186   1.384       .  S
C1181      F1187   1.380       .  S
C1184      F1188   1.383       .  S
C1184      F1190   1.381       .  S
C1191      C1192   1.394       .  A
C1191      C1196   1.397   1_565  A
C1191      H1198   1.080   1_565  S
C1192      C1193   1.411       .  A
C1193      C1194   1.400       .  A
C1193      C1200   1.518       .  S
C1194      C1195   1.407       .  A
C1194      H1199   1.082       .  S
C1195      C1196   1.423   1_565  A
C1196      C1197   1.519       .  S
C1197      F1201   1.385       .  S
C1197      F1202   1.383       .  S
C1197      F1203   1.383       .  S
C1200      F1204   1.384       .  S
C1200      F1623   1.381       .  S
C1200      F1624   1.383       .  S
F1205      C1618   1.376       .  S
F1206      C1618   1.384       .  S
C1207      C1208   1.408   1_545  A
C1207      C1212   1.403       .  A
C1207      H1214   1.084       .  S
C1208      C1209   1.427       .  A
C1209      C1210   1.406       .  A
C1209      C1216   1.519       .  S
C1210      C1211   1.398       .  A
C1210      H1215   1.083       .  S
C1211      C1212   1.413   1_565  A
C1212      C1213   1.516       .  S
C1213      F1217   1.383       .  S
C1213      F1218   1.383       .  S
C1213      F1219   1.381       .  S
C1216      F1638   1.378       .  S
C1216      F1221   1.383       .  S
C1216      F1222   1.385       .  S
F1220      C1634   1.379       .  S
C1223      C1642   1.398       .  A
C1223      C1228   1.406       .  A
C1223      H1230   1.082       .  S
C1224      N1464   1.439       .  S
C1224      C1641   1.396   1_565  A
C1224      C1225   1.413       .  A
C1225      C1226   1.404       .  A
C1225      C1232   1.519       .  S
C1226      C1227   1.413   1_565  A
C1226      H1231   1.084       .  S
C1227      C1646   1.429       .  A
C1228      C1645   1.426       .  A
C1228      C1229   1.518       .  S
C1229      F1233   1.385       .  S
C1229      F1652   1.382       .  S
C1229      F1235   1.383       .  S
C1232      F1236   1.384       .  S
C1232      F1655   1.381       .  S
C1232      F1238   1.382       .  S
F1234      C1647   1.382       .  S
F1237      C1650   1.382       .  S
C1239      C1658   1.406       .  A
C1239      C1244   1.393       .  A
C1239      H1246   1.081       .  S
C1240      C1657   1.407   1_565  A
C1240      C1241   1.425       .  A
C1241      C1242   1.406       .  A
C1241      C1248   1.519       .  S
C1242      C1243   1.397       .  A
C1242      H1247   1.083       .  S
C1243      C1662   1.412   1_565  A
C1243      C1465   1.464       .  S
C1244      C1661   1.410       .  A
C1244      C1245   1.522       .  S
C1245      F1249   1.384       .  S
C1245      F1668   1.383       .  S
C1245      F1251   1.382       .  S
C1248      F1252   1.383       .  S
C1248      F1671   1.383       .  S
C1248      F1254   1.385       .  S
F1250      C1663   1.383       .  S
F1253      C1666   1.383       .  S
N1255      C1256   1.349       .  A
C1257      C1258   1.367       .  A
C1257      H1260   1.082       .  S
C1258      C1259   1.385       .  A
C1258      H1261   1.081       .  S
C1259      C1266   1.473       .  S
N1262      C1266   1.360       .  A
N1262      C1263   1.353       .  A
N1262      C1420   1.453       .  S
C1263      C1264   1.379       .  A
C1263      C1401   1.463       .  S
C1264      C1265   1.370       .  A
C1264      H1267   1.082       .  S
C1265      C1266   1.384       .  A
C1265      H1268   1.080       .  S
N1269      C1273   1.364       .  A
N1269      C1270   1.357       .  A
N1269      C1369   1.439       .  S
C1270      C1271   1.380       .  A
C1270      C1385   1.487       .  S
C1271      C1272   1.373       .  A
C1271      H1274   1.082       .  S
C1272      C1273   1.388       .  A
C1272      H1275   1.076       .  S
C1273      C1280   1.504       .  S
N1276      C1280   1.362       .  A
N1276      C1277   1.357       .  A
N1276      C1353   1.441       .  S
C1277      C1278   1.378   1_655  A
C1277      C1340   1.483       .  S
C1278      C1279   1.375       .  A
C1278      H1281   1.080       .  S
C1279      C1280   1.389   1_455  A
C1279      H1282   1.077       .  S
C1283      C1320   1.460       .  S
C1283      C1449   1.479       .  S
N1284      N1301   1.320       .  A
C1285      N1310   1.339       .  A
C1285      C1323   1.464       .  S
C1285      H1330   1.076       .  S
H1286      C1327   1.081       .  S
C1287      H1316   1.072       .  S
Co1288     N1296   2.078       .  S
Co1288     N1513   2.083   1_554  S
Co1288    Cl1332   2.440       .  S
N1289      C1327   1.342       .  A
N1289      N1296   1.317       .  A
N1289     Co1290   2.076       .  S
Co1290     N1293   2.096       .  S
Co1290     N1519   2.098   1_554  S
Co1290     N1506   2.064   1_554  S
Co1290    Cl1332   2.457       .  S
C1291      N1329   1.356       .  A
C1291      C1417   1.508       .  S
N1292      N1299   1.317       .  A
N1292      N1322   1.323       .  A
N1292     Co1325   2.078       .  S
N1293      N1311   1.318       .  A
N1293      N1329   1.326       .  A
N1294      C1323   1.354       .  A
N1294      N1304   1.325       .  A
H1295      C1320   1.081       .  S
N1296      N1317   1.319       .  A
N1297      N1315   1.318       .  A
N1297      N1302   1.319       .  A
N1297     Co1499   2.067       .  S
C1298      N1302   1.344       .  A
C1298      C1404   1.488       .  S
N1299      C1314   1.342       .  A
N1299     Co1321   2.095       .  S
C1300      N1328   1.345       .  A
C1300      C1303   1.475       .  S
C1300      H1334   1.077       .  S
C1303      C1436   1.505       .  S
N1304      N1310   1.316       .  A
N1304     Co1497   2.082       .  S
N1305      C1331   1.341       .  A
N1305      N1307   1.318       .  A
N1305     Co1530   2.084       .  S
N1306      C1320   1.333       .  A
N1307      N1335   1.323       .  A
N1307     Co1534   2.081       .  S
H1308      C1331   1.082   1_455  S
H1309      C1326   1.081       .  S
N1310     Co1499   2.083       .  S
N1312      N1324   1.322       .  A
C1313      N1317   1.349       .  A
C1313      C1327   1.465       .  S
C1313      C1388   1.473       .  S
C1314      C1333   1.473       .  S
C1314      H1318   1.080   1_655  S
C1319      N1335   1.349       .  A
C1319      C1331   1.466       .  S
C1319      C1337   1.486       .  S
Co1321     N1514   2.081   1_554  S
N1322      C1333   1.349       .  A
C1323      C1372   1.491       .  S
Co1325     N1516   2.090   1_554  S
C1333      C1356   1.497       .  S
C1336      C1337   1.406   1_455  A
C1336      C1341   1.408       .  A
C1336      H1343   1.082       .  S
C1337      C1338   1.420       .  A
C1338      C1339   1.403       .  A
C1338      C1345   1.520       .  S
C1339      C1340   1.401       .  A
C1339      H1344   1.080       .  S
C1340      C1341   1.418   1_655  A
C1341      C1342   1.522       .  S
C1342      F1346   1.381       .  S
C1342      F1347   1.385       .  S
C1342      F1348   1.381       .  S
C1345      F1349   1.383       .  S
C1345      F1350   1.382       .  S
C1345      F1351   1.385       .  S
C1352      C1353   1.397       .  A
C1352      C1357   1.408       .  A
C1352      H1359   1.082       .  S
C1353      C1354   1.413   1_655  A
C1354      C1355   1.405       .  A
C1354      C1361   1.514       .  S
C1355      C1356   1.406   1_455  A
C1355      H1360   1.080       .  S
C1356      C1357   1.428       .  A
C1357      C1358   1.517       .  S
C1358      F1362   1.385       .  S
C1358      F1363   1.382       .  S
C1358      F1364   1.384       .  S
C1361      F1365   1.383       .  S
C1361      F1366   1.379       .  S
C1361      F1367   1.384       .  S
C1368      C1369   1.396       .  A
C1368      C1373   1.404       .  A
C1368      H1375   1.083       .  S
C1369      C1370   1.412       .  A
C1370      C1371   1.408       .  A
C1370      C1377   1.517   1_655  S
C1371      C1372   1.410       .  A
C1371      H1376   1.083   1_655  S
C1372      C1373   1.426       .  A
C1373      C1374   1.519       .  S
C1374      F1378   1.385       .  S
C1374      F1379   1.382       .  S
C1374      F1380   1.380       .  S
C1377      F1381   1.384       .  S
C1384      C1385   1.409       .  A
C1384      C1389   1.409       .  A
C1384      H1391   1.080       .  S
C1385      C1386   1.422       .  A
C1386      C1387   1.397       .  A
C1387      C1388   1.399       .  A
C1387      H1392   1.085       .  S
C1388      C1389   1.413       .  A
C1389      C1390   1.518       .  S
C1390      F1394   1.385       .  S
C1390      F1395   1.384       .  S
C1390      F1396   1.380       .  S
C1393      F1397   1.381       .  S
C1393      F1399   1.379       .  S
C1400      C1401   1.394       .  A
C1400      C1405   1.400       .  A
C1400      H1407   1.083       .  S
C1401      C1402   1.413       .  A
C1402      C1403   1.400       .  A
C1402      C1409   1.518       .  S
C1403      C1404   1.405       .  A
C1403      H1408   1.082       .  S
C1404      C1405   1.428       .  A
C1405      C1406   1.518       .  S
C1406      F1410   1.385       .  S
C1406      F1411   1.380       .  S
C1406      F1412   1.383       .  S
C1409      F1413   1.383       .  S
C1416      C1417   1.410       .  A
C1416      C1421   1.409       .  A
C1416      H1423   1.084       .  S
C1417      C1418   1.428       .  A
C1418      C1419   1.412       .  A
C1418      C1425   1.516       .  S
C1419      C1420   1.401       .  A
C1419      H1424   1.080       .  S
C1420      C1421   1.419       .  A
C1421      C1422   1.518       .  S
C1422      F1426   1.384       .  S
C1422      F1427   1.383       .  S
C1422      F1428   1.379       .  S
C1425      F1430   1.383       .  S
C1425      F1431   1.385       .  S
C1432      C1437   1.411       .  A
C1432      H1439   1.082       .  S
C1433      C1434   1.417       .  A
C1434      C1435   1.412       .  A
C1434      C1441   1.514       .  S
C1435      C1436   1.411       .  A
C1435      H1440   1.084       .  S
C1437      C1438   1.516       .  S
C1438      F1442   1.385       .  S
C1438      F1444   1.381       .  S
C1441      F1445   1.381       .  S
C1441      F1447   1.384       .  S
C1448      C1453   1.399       .  A
C1448      H1455   1.082       .  S
C1449      C1450   1.422       .  A
C1450      C1451   1.405       .  A
C1450      C1457   1.519       .  S
C1451      C1452   1.398       .  A
C1451      H1456   1.084       .  S
C1453      C1454   1.519       .  S
C1454      F1458   1.384       .  S
C1454      F1460   1.382       .  S
C1457      F1461   1.382       .  S
C1457      F1463   1.385       .  S
N1464      C1465   1.350       .  A
C1466      C1467   1.369       .  A
C1466      H1469   1.082       .  S
C1467      C1468   1.387       .  A
C1467      H1470   1.080       .  S
C1468      C1475   1.476       .  S
N1471      C1475   1.356       .  A
N1471      C1472   1.349       .  A
N1471      C1629   1.444       .  S
C1472      C1473   1.379       .  A
C1472      C1610   1.464       .  S
C1473      C1474   1.376       .  A
C1473      H1476   1.082       .  S
C1474      C1475   1.386       .  A
C1474      H1477   1.080       .  S
N1478      C1482   1.367       .  A
N1478      C1479   1.361       .  A
N1478      C1578   1.450       .  S
C1479      C1480   1.380       .  A
C1479      C1594   1.483       .  S
C1480      C1481   1.370   1_655  A
C1480      H1483   1.082       .  S
C1481      C1482   1.385   1_455  A
C1481      H1484   1.078       .  S
C1482      C1489   1.495   1_655  S
N1485      C1489   1.365   1_655  A
N1485      C1486   1.357   1_655  A
N1485      C1562   1.445       .  S
C1486      C1487   1.381       .  A
C1486      C1549   1.484   1_455  S
C1487      C1488   1.376       .  A
C1487      H1490   1.082       .  S
C1488      C1489   1.385       .  A
C1488      H1491   1.080       .  S
C1492      C1529   1.459       .  S
C1492      C1658   1.476       .  S
N1493      N1510   1.323       .  A
C1494      N1519   1.343       .  A
C1494      C1532   1.470       .  S
C1494      H1539   1.075       .  S
H1495      C1536   1.077       .  S
C1496      H1525   1.075       .  S
Co1497     N1505   2.073       .  S
Co1497    Cl1541   2.442       .  S
N1498      C1536   1.345       .  A
N1498      N1505   1.316       .  A
N1498     Co1499   2.090       .  S
Co1499     N1502   2.083       .  S
Co1499    Cl1541   2.453       .  S
C1500      N1538   1.354       .  A
C1500      C1626   1.507       .  S
N1501      N1508   1.318       .  A
N1501      N1531   1.325       .  A
N1501     Co1534   2.083       .  S
N1502      N1520   1.318       .  A
N1502      N1538   1.323       .  A
N1503      C1532   1.354       .  A
N1503      N1513   1.325       .  A
H1504      C1529   1.081       .  S
N1505      N1526   1.320       .  A
N1506      N1524   1.318       .  A
N1506      N1511   1.320       .  A
C1507      N1511   1.346       .  A
C1507      C1613   1.484       .  S
N1508      C1523   1.340       .  A
N1508     Co1530   2.093       .  S
C1509      N1537   1.337       .  A
C1509      C1512   1.465       .  S
C1509      H1543   1.077       .  S
C1512      C1645   1.500       .  S
N1513      N1519   1.317       .  A
N1514      C1540   1.339       .  A
N1514      N1516   1.318       .  A
N1515      C1529   1.331       .  A
N1516      N1544   1.326       .  A
H1517      C1540   1.081   1_455  S
H1518      C1535   1.078       .  S
N1521      N1533   1.322       .  A
C1522      N1526   1.350       .  A
C1522      C1536   1.474       .  S
C1522      C1597   1.494       .  S
C1523      C1542   1.472       .  S
C1523      H1527   1.080   1_655  S
C1528      N1544   1.352       .  A
C1528      C1540   1.463       .  S
C1528      C1546   1.489       .  S
N1531      C1542   1.351       .  A
C1532      C1581   1.501       .  S
C1542      C1565   1.503       .  S
C1545      C1546   1.404   1_455  A
C1545      C1550   1.403       .  A
C1545      H1552   1.084       .  S
C1546      C1547   1.421       .  A
C1547      C1548   1.409       .  A
C1547      C1554   1.518       .  S
C1548      C1549   1.403       .  A
C1548      H1553   1.082       .  S
C1549      C1550   1.419   1_655  A
C1550      C1551   1.521       .  S
C1551      F1555   1.385       .  S
C1551      F1556   1.381       .  S
C1551      F1557   1.382       .  S
C1554      F1558   1.384       .  S
C1554      F1559   1.381       .  S
C1554      F1560   1.385       .  S
C1561      C1562   1.398       .  A
C1561      C1566   1.411       .  A
C1561      H1568   1.083       .  S
C1562      C1563   1.415   1_655  A
C1563      C1564   1.405       .  A
C1563      C1570   1.515       .  S
C1564      C1565   1.406   1_455  A
C1564      H1569   1.079       .  S
C1565      C1566   1.429       .  A
C1566      C1567   1.515       .  S
C1567      F1571   1.385       .  S
C1567      F1572   1.383       .  S
C1567      F1573   1.382       .  S
C1570      F1574   1.382       .  S
C1570      F1575   1.378       .  S
C1570      F1576   1.385       .  S
C1577      C1578   1.402       .  A
C1577      C1582   1.413       .  A
C1577      H1584   1.083       .  S
C1578      C1579   1.418       .  A
C1579      C1580   1.409       .  A
C1579      C1586   1.516   1_655  S
C1580      C1581   1.407       .  A
C1580      H1585   1.084       .  S
C1581      C1582   1.426       .  A
C1582      C1583   1.517       .  S
C1583      F1587   1.385       .  S
C1583      F1588   1.383       .  S
C1583      F1589   1.380       .  S
C1586      F1590   1.384       .  S
C1593      C1594   1.404       .  A
C1593      C1598   1.413       .  A
C1593      H1600   1.083       .  S
C1594      C1595   1.420   1_655  A
C1595      C1596   1.400   1_455  A
C1596      C1597   1.407       .  A
C1596      H1601   1.084   1_655  S
C1597      C1598   1.422       .  A
C1598      C1599   1.516       .  S
C1599      F1603   1.385       .  S
C1599      F1604   1.383       .  S
C1599      F1605   1.381       .  S
C1602      F1606   1.381       .  S
C1602      F1608   1.385       .  S
C1609      C1610   1.397       .  A
C1609      C1614   1.404       .  A
C1609      H1616   1.083       .  S
C1610      C1611   1.413       .  A
C1611      C1612   1.396       .  A
C1611      C1618   1.518       .  S
C1612      C1613   1.403       .  A
C1612      H1617   1.081       .  S
C1613      C1614   1.426       .  A
C1614      C1615   1.519       .  S
C1615      F1619   1.385       .  S
C1615      F1620   1.383       .  S
C1615      F1621   1.383       .  S
C1618      F1622   1.383       .  S
C1625      C1626   1.412       .  A
C1625      C1630   1.406       .  A
C1625      H1632   1.084       .  S
C1626      C1627   1.429       .  A
C1627      C1628   1.411       .  A
C1627      C1634   1.515       .  S
C1628      C1629   1.397       .  A
C1628      H1633   1.081       .  S
C1629      C1630   1.414       .  A
C1630      C1631   1.519       .  S
C1631      F1635   1.384       .  S
C1631      F1636   1.383       .  S
C1631      F1637   1.381       .  S
C1634      F1639   1.383       .  S
C1634      F1640   1.385       .  S
C1641      C1646   1.409       .  A
C1641      H1648   1.080       .  S
C1642      C1643   1.415       .  A
C1643      C1644   1.411       .  A
C1643      C1650   1.515       .  S
C1644      C1645   1.410       .  A
C1644      H1649   1.084       .  S
C1646      C1647   1.515       .  S
C1647      F1651   1.385       .  S
C1647      F1653   1.383       .  S
C1650      F1654   1.380       .  S
C1650      F1656   1.384       .  S
C1657      C1662   1.399       .  A
C1657      H1664   1.082       .  S
C1658      C1659   1.421       .  A
C1659      C1660   1.404       .  A
C1659      C1666   1.520       .  S
C1660      C1661   1.399       .  A
C1660      H1665   1.083       .  S
C1662      C1663   1.522       .  S
C1663      F1667   1.383       .  S
C1663      F1669   1.381       .  S
C1666      F1670   1.383       .  S
C1666      F1672   1.385       .  S
