geometry optimzed in LAMMPS
_audit_creation_date              2020-11-30 
_audit_creation_method            'lammps2cif' 
_symmetry_space_group_name_H-M    'P1' 
_symmetry_Int_Tables_number       1 
_symmetry_cell_setting            triclinic 
loop_ 
_symmetry_equiv_pos_as_xyz 
  x,y,z 
_cell_length_a                    54.42458931 
_cell_length_b                    53.79368692935106 
_cell_length_c                    33.850364373459705 
_cell_angle_alpha                 90.46134497440696 
_cell_angle_beta                  89.99470464056209 
_cell_angle_gamma                 120.15427858506253 
loop_ 
_atom_site_label 
_atom_site_type_symbol 
_atom_site_fract_x 
_atom_site_fract_y 
_atom_site_fract_z 
_atom_site_charge 
C1          C  0.50325257  0.99939274  0.78538157     0.46000
H2          H  0.50300260  0.99847849  0.81813952    -0.03000
C3          C  0.00187413  0.50071976  0.70978975     0.46100
H4          H  0.00242337  0.50193176  0.67708419    -0.03000
C5          C  0.47818110  0.47344501  0.76842131    -0.16700
C6          C  0.50293510  0.02587978  0.76873667    -0.16400
C7          C  0.02818121  0.50056135  0.76840937    -0.16800
C8          C  0.47623603  0.47389313  0.72768986    -0.16800
C9          C  0.50325353  0.02683707  0.72811333    -0.16400
C10         C  0.02836891  0.50168756  0.72796103    -0.16700
O11         O  0.31279320  0.10107574  0.04036181    -0.77900
C12         C  0.27014617  0.15073128  0.05341176     0.83100
O13         O  0.30046413  0.13632459  0.91022008    -0.79000
O14         O  0.33272139  0.22140834  0.97481621    -0.80500
O15         O  0.38902347  0.20346498  0.05441692    -0.80300
O16         O  0.35826383  0.13133759  0.05554380    -0.78900
Zn17       Zn  0.30091928  0.12532659  0.00938245     1.55700
O18         O  0.35715602  0.21783144  0.05840749    -0.80300
Cd19       Cd  0.36821606  0.16611455  0.02038263     1.59700
Cd20       Cd  0.33787856  0.16633486  0.93798738     1.59600
O21         O  0.39402240  0.16483833  0.97659912    -0.80300
O22         O  0.33315325  0.16198275  0.99645926    -1.90800
Cd23       Cd  0.32694838  0.19266725  0.01778946     1.59900
O24         O  0.37109923  0.16061327  0.92001103    -0.80300
O25         O  0.28814404  0.17645708  0.04418067    -0.78900
C26         C  0.27924791  0.11389084  0.92429464     0.83600
C27         C  0.33568495  0.10698533  0.05853496     0.83200
O28         O  0.27330684  0.12969688  0.04342836    -0.77900
C29         C  0.38110343  0.22068364  0.06737666     0.84100
O30         O  0.27814869  0.10664166  0.96029924    -0.78000
C31         C  0.39164817  0.16135831  0.93916988     0.84200
C32         C  0.34311578  0.22570704  0.94022030     0.84500
O33         O  0.34726656  0.20729175  0.92204869    -0.80400
C34         C  0.38428551  0.37867605  0.84710829     0.03700
C35         C  0.35917548  0.37984508  0.85321302    -0.12500
C36         C  0.33505979  0.35627276  0.86941235     0.01200
C37         C  0.33551604  0.33118588  0.87782537    -0.11000
C38         C  0.36009294  0.32973201  0.87194173     0.03700
C39         C  0.38448083  0.35339080  0.85701426    -0.10400
H40         H  0.35835696  0.39898372  0.84609176     0.09300
H41         H  0.31715327  0.31326502  0.89138279     0.06800
H42         H  0.40375916  0.35230755  0.85428965     0.06700
O43         O  0.13887482  0.36100541  0.04969052    -0.77900
C44         C  0.22179889  0.37786534  0.07239410     0.83100
O45         O  0.16663670  0.36808852  0.91790323    -0.79000
O46         O  0.22954585  0.33438674  0.97476954    -0.80500
O47         O  0.13553321  0.27448763  0.05018436    -0.80300
O48         O  0.10599442  0.31627272  0.03357241    -0.78900
Zn49       Zn  0.17309817  0.36784798  0.01809351     1.55700
O50         O  0.17957206  0.28391331  0.03634038    -0.80300
Cd51       Cd  0.13159208  0.30122147  0.01055505     1.59700
Cd52       Cd  0.17287251  0.33515093  0.93668698     1.59600
O53         O  0.11314138  0.27508913  0.96195246    -0.80300
O54         O  0.16934483  0.33323305  0.99554166    -1.90800
Cd55       Cd  0.19886892  0.32596975  0.01703466     1.59900
O56         O  0.14212434  0.29650559  0.91098374    -0.80300
O57         O  0.22016728  0.35405900  0.06319115    -0.78900
C58         C  0.16818570  0.38939904  0.93698653     0.83600
C59         C  0.11325821  0.34050800  0.04981597     0.83200
O60         O  0.20647930  0.38647214  0.05547168    -0.77900
C61         C  0.15496945  0.26790953  0.05103265     0.84100
O62         O  0.17357642  0.39298771  0.97398095    -0.78000
C63         C  0.12000307  0.27539162  0.92589192     0.84200
C64         C  0.23250980  0.34178383  0.93856876     0.84500
O65         O  0.21311192  0.34347842  0.91966629    -0.80400
C66         C  0.12003606  0.11620682  0.14420938     0.03700
C67         C  0.11812752  0.14026171  0.13213316    -0.12500
C68         C  0.14050946  0.16253220  0.11128123     0.01200
C69         C  0.16525960  0.16153375  0.10448095    -0.11000
C70         C  0.16751272  0.13799801  0.11630581     0.03700
C71         C  0.14470170  0.11505082  0.13530618    -0.10400
H72         H  0.09922672  0.14148349  0.13828114     0.09300
H73         H  0.18278981  0.17905552  0.08901835     0.06800
H74         H  0.14620822  0.09634143  0.14280860     0.06700
C75         C  0.12767738  0.99916785  0.83550066     0.03700
C76         C  0.15378789  0.02550663  0.83633925    -0.12500
C77         C  0.17836374  0.02701029  0.85200186     0.01200
C78         C  0.17733124  0.00203004  0.86518490    -0.11000
C79         C  0.15015639  0.47350029  0.85934264     0.03700
C80         C  0.12485474  0.47217418  0.84719384    -0.10400
H81         H  0.15507867  0.04506728  0.82578298     0.09300
H82         H  0.19612308  0.00327335  0.87828336     0.06800
H83         H  0.10513934  0.45189832  0.84916786     0.06700
C84         C  0.99919037  0.37673684  0.15100999     0.03700
C85         C  0.02464548  0.37810663  0.13816763    -0.12500
C86         C  0.02378586  0.35411878  0.11955910     0.01200
C87         C  0.99769471  0.32862777  0.11574526    -0.11000
C88         C  0.47138902  0.32412524  0.13389570     0.03700
C89         C  0.47199549  0.34831285  0.15065200    -0.10400
H90         H  0.04483949  0.39772886  0.14199063     0.09300
H91         H  0.99694530  0.30997203  0.10200800     0.06800
H92         H  0.45210962  0.34711498  0.15811771     0.06700
C93         C  0.00139875  0.12346545  0.84011101     0.03700
C94         C  0.47907810  0.12505429  0.85040045    -0.12500
C95         C  0.48039803  0.15065985  0.86268063     0.01200
C96         C  0.00419329  0.17531356  0.86265819    -0.11000
C97         C  0.02927774  0.17512561  0.85414689     0.03700
C98         C  0.02776043  0.14933222  0.84212573    -0.10400
H99         H  0.45881174  0.10523852  0.85120060     0.09300
H100        H  0.00531199  0.19484800  0.87365405     0.06800
H101        H  0.04724159  0.14955694  0.83486837     0.06700
C102        C  0.35542990  0.49681933  0.19281123     0.03700
C103        C  0.33012140  0.47022619  0.18791545    -0.12500
C104        C  0.30761470  0.46810616  0.16514993     0.01200
C105        C  0.30986395  0.49291300  0.14884569    -0.11000
C106        C  0.33279275  0.01861997  0.15753785     0.03700
C107        C  0.35593718  0.02063422  0.17881657    -0.10400
H108        H  0.32821951  0.45074875  0.19965793     0.09300
H109        H  0.29347467  0.49090230  0.12870472     0.06800
H110        H  0.37524880  0.04113862  0.18003416     0.06700
O111        O  0.36587821  0.14360082  0.43003233    -0.77900
C112        C  0.38915925  0.23081373  0.43854278     0.83100
O113        O  0.36239997  0.15613000  0.57091122    -0.79000
O114        O  0.33294757  0.22488795  0.51619274    -0.80500
O115        O  0.27623748  0.13652860  0.43150708    -0.80300
O116        O  0.32005508  0.11003906  0.43383003    -0.78900
Zn117      Zn  0.37027132  0.17211448  0.47264098     1.55700
O118        O  0.29176641  0.18342006  0.43691069    -0.80300
Cd119      Cd  0.30320355  0.13008960  0.46709800     1.59700
Cd120      Cd  0.33251344  0.16561124  0.54813013     1.59600
O121        O  0.27703030  0.10492422  0.51177487    -0.80300
O122        O  0.33412880  0.16650385  0.48917606    -1.90800
Cd123      Cd  0.32943825  0.19840687  0.46913037     1.59900
O124        O  0.29267362  0.13323075  0.56541989    -0.80300
O125        O  0.36370786  0.22558029  0.43499283    -0.78900
C126        C  0.38312288  0.15605923  0.55342391     0.83600
C127        C  0.34500489  0.11905385  0.42038667     0.83200
O128        O  0.39510689  0.21312054  0.45475681    -0.77900
C129        C  0.27375269  0.15831887  0.42404963     0.84100
O130        O  0.38854885  0.16299917  0.51726951    -0.78000
C131        C  0.27416599  0.11037799  0.54767072     0.84200
C132        C  0.33912187  0.22588649  0.55280418     0.84500
O133        O  0.34038775  0.20536662  0.56959495    -0.80400
C134        C  0.37569484  0.37609938  0.65966926     0.03700
C135        C  0.37791583  0.35198538  0.64807056    -0.12500
C136        C  0.35386960  0.32682970  0.63396909     0.01200
C137        C  0.32768198  0.32570472  0.63176220    -0.11000
C138        C  0.32540649  0.34972457  0.64158953     0.03700
C139        C  0.34936177  0.37483047  0.65537314    -0.10400
H140        H  0.39822062  0.35286117  0.64950166     0.09300
H141        H  0.30947774  0.30680219  0.61919979     0.06800
H142        H  0.34767152  0.39375025  0.66112850     0.06700
O143        O  0.11488948  0.32634468  0.45346891    -0.77900
C144        C  0.15678355  0.27340843  0.44832757     0.83100
O145        O  0.13084219  0.29041809  0.58192725    -0.79000
O146        O  0.22442312  0.33504738  0.53540817    -0.80500
O147        O  0.21683261  0.39680167  0.47320969    -0.80300
O148        O  0.14789031  0.37284229  0.45458598    -0.78900
Zn149      Zn  0.13200343  0.30702403  0.48486894     1.55700
O150        O  0.22237845  0.36109791  0.44963601    -0.80300
Cd151      Cd  0.17609000  0.37407622  0.49603757     1.59700
Cd152      Cd  0.16461953  0.33085480  0.56875454     1.59600
O153        O  0.16942013  0.39346451  0.54419002    -0.80300
O154        O  0.16670872  0.33488695  0.51002423    -1.90800
Cd155      Cd  0.19748211  0.32952738  0.48966106     1.59900
O156        O  0.15758337  0.36227392  0.59377579    -0.80300
O157        O  0.18078665  0.28903431  0.46510449    -0.78900
C158        C  0.10872207  0.27406162  0.56143669     0.83600
C159        C  0.12393379  0.35227192  0.44310538     0.83200
O160        O  0.13738846  0.28002807  0.44896661    -0.77900
C161        C  0.23027825  0.38773606  0.45218105     0.84100
O162        O  0.10570537  0.28031794  0.52613087    -0.78000
C163        C  0.16087487  0.38560992  0.57938452     0.84200
C164        C  0.22404762  0.33771629  0.57277649     0.84500
O165        O  0.20264143  0.33588989  0.59092352    -0.80400
C166        C  0.12796879  0.00272547  0.65866995     0.03700
C167        C  0.12681948  0.47812795  0.66044322    -0.12500
C168        C  0.15028351  0.47644258  0.64698449     0.01200
C169        C  0.17539326  0.99957833  0.63236672    -0.11000
C170        C  0.17520174  0.02529079  0.62919831     0.03700
C171        C  0.15136758  0.02677282  0.64145387    -0.10400
H172        H  0.10811616  0.45862798  0.66996260     0.09300
H173        H  0.19318775  0.99820068  0.62048867     0.06800
H174        H  0.15099348  0.04643756  0.63666391     0.06700
C175        C  0.99642236  0.11839597  0.64997777     0.03700
C176        C  0.46930560  0.11656873  0.64560929    -0.12500
C177        C  0.46708538  0.13905362  0.62849157     0.01200
C178        C  0.99166566  0.16239754  0.61321091    -0.11000
C179        C  0.01849950  0.16586859  0.61966329     0.03700
C180        C  0.02092365  0.14393531  0.63801702    -0.10400
H181        H  0.45010990  0.09675384  0.65282029     0.09300
H182        H  0.98978935  0.17922859  0.59850306     0.06800
H183        H  0.04181162  0.14641848  0.64150449     0.06700
C184        C  0.50747552  0.38754300  0.35994678     0.03700
C185        C  0.48191434  0.36221588  0.36974110    -0.12500
C186        C  0.48251355  0.33859094  0.38612896     0.01200
C187        C  0.50851053  0.33964787  0.39047811    -0.11000
C188        C  0.03532007  0.36377098  0.37282029     0.03700
C189        C  0.03446392  0.38788082  0.35926400    -0.10400
H190        H  0.46161542  0.36085535  0.36508343     0.09300
H191        H  0.50896319  0.32129064  0.40263497     0.06800
H192        H  0.05432172  0.40771955  0.35539920     0.06700
C193        C  0.11955277  0.12279931  0.34398221     0.03700
C194        C  0.14558579  0.12281288  0.34512631    -0.12500
C195        C  0.17028788  0.14647467  0.36113569     0.01200
C196        C  0.16879367  0.17022522  0.37492936    -0.11000
C197        C  0.14319651  0.17032634  0.37536830     0.03700
C198        C  0.11871087  0.14688481  0.35917161    -0.10400
H199        H  0.14670867  0.10464324  0.33338910     0.09300
H200        H  0.18756435  0.18843645  0.38758251     0.06800
H201        H  0.09882672  0.14692285  0.35983022     0.06700
C202        C  0.37285766  0.99670725  0.33250686     0.03700
C203        C  0.37396977  0.02334464  0.33540926    -0.12500
C204        C  0.35262000  0.02566615  0.35515026     0.01200
C205        C  0.33003810  0.00117814  0.37190228    -0.11000
C206        C  0.32745144  0.47580045  0.36925028     0.03700
C207        C  0.34891198  0.47341619  0.34923063    -0.10400
H208        H  0.39166502  0.04231887  0.32266061     0.09300
H209        H  0.31358915  0.00307150  0.38733846     0.06800
H210        H  0.34853397  0.45309189  0.34856958     0.06700
C211        C  0.50044427  0.49761875  0.21072742     0.46000
H212        H  0.50197379  0.49643645  0.17814815    -0.03000
C213        C  0.49444175  0.50054011  0.28699078     0.46100
H214        H  0.49279276  0.50164966  0.31947017    -0.03000
C215        C  0.02515127  0.02506606  0.22712776    -0.16700
C216        C  0.47388384  0.49751729  0.22379710    -0.16400
C217        C  0.49921671  0.47239716  0.23299675    -0.16800
C218        C  0.02232149  0.02698333  0.26734381    -0.16800
C219        C  0.46949658  0.49914096  0.26190082    -0.16400
C220        C  0.49704443  0.47433043  0.27346586    -0.16700
C221        C  0.39686842  0.99588343  0.31302453    -0.04900
C222        C  0.39432031  0.98593780  0.27398877    -0.32300
C223        C  0.41825670  0.99511177  0.24474395     0.36900
C224        C  0.44273590  0.50045493  0.27379864    -0.05300
C225        C  0.44375752  0.50820396  0.31390690    -0.32200
C226        C  0.42124992  0.50790844  0.33256382     0.36800
H227        H  0.37196444  0.97279888  0.26669936     0.17200
O228        O  0.41688055  0.99859035  0.18091019    -0.59700
H229        H  0.46267774  0.51528567  0.33152132     0.17200
O230        O  0.42380818  0.51672316  0.37127674    -0.59800
H231        H  0.41764522  0.49910749  0.38708533     0.44200
H232        H  0.42218130  0.01206490  0.15739442     0.44200
C233        C  0.04402561  0.05128104  0.29194588    -0.04900
C234        C  0.06015756  0.04615822  0.31955793    -0.32300
C235        C  0.08461651  0.06910701  0.33700711     0.36900
C236        C  0.09313020  0.09781787  0.32724379    -0.05300
C237        C  0.07587347  0.10280246  0.30135555    -0.32200
C238        C  0.05158447  0.07988889  0.28376307     0.36800
H239        H  0.05453301  0.02426060  0.32623459     0.17200
O240        O  0.09962805  0.06328564  0.36432584    -0.59700
H241        H  0.08165421  0.12460117  0.29379589     0.17200
O242        O  0.03527620  0.08550994  0.25845880    -0.59800
H243        H  0.04794013  0.09651768  0.23631226     0.44200
H244        H  0.10926421  0.05484790  0.34905443     0.44200
C245        C  0.50688516  0.41252097  0.34145986    -0.04900
C246        C  0.48513043  0.41859839  0.35097010    -0.32300
C247        C  0.48234617  0.43975858  0.33067253     0.36900
C248        C  0.50190190  0.45582857  0.30112657    -0.05300
C249        C  0.02566409  0.45224413  0.28933277    -0.32200
C250        C  0.02782777  0.42986790  0.30640407     0.36800
H251        H  0.46965440  0.40640912  0.37344085     0.17200
O252        O  0.45925657  0.44293177  0.33773177    -0.59700
H253        H  0.04121971  0.46546977  0.26743773     0.17200
O254        O  0.04834885  0.42438722  0.29251011    -0.59800
H255        H  0.06674954  0.44103992  0.30110709     0.44200
H256        H  0.46467690  0.45608940  0.36087056     0.44200
C257        C  0.08634312  0.24619046  0.57753680    -0.04900
C258        C  0.06556746  0.22615525  0.55147757    -0.32300
C259        C  0.04449515  0.19937126  0.56460905     0.36900
C260        C  0.04344797  0.19207910  0.60462673    -0.05300
C261        C  0.06454437  0.21144376  0.63067778    -0.32200
C262        C  0.08588617  0.23841640  0.61747211     0.36800
H263        H  0.06560328  0.23109675  0.52050767     0.17200
O264        O  0.02455992  0.18059274  0.53816128    -0.59700
H265        H  0.06384282  0.20607146  0.66159625     0.17200
O266        O  0.10589042  0.25698537  0.64395286    -0.59800
H267        H  0.09759864  0.26803909  0.65580461     0.44200
H268        H  0.03176060  0.16782572  0.52922269     0.44200
C269        C  0.15086066  0.24609693  0.42981602    -0.04900
C270        C  0.15862413  0.22862730  0.45041230    -0.32300
C271        C  0.15427681  0.20289367  0.43388271     0.36900
C272        C  0.14264395  0.19455692  0.39557936    -0.05300
C273        C  0.13349572  0.21128249  0.37563609    -0.32200
C274        C  0.13718894  0.23680618  0.39284241     0.36800
H275        H  0.16806759  0.23492754  0.47960531     0.17200
O276        O  0.16112981  0.18570460  0.45550632    -0.59700
H277        H  0.12448435  0.20512275  0.34621423     0.17200
O278        O  0.12896492  0.25332650  0.37236458    -0.59800
H279        H  0.10872149  0.24560836  0.37934159     0.44200
H280        H  0.18214799  0.19643493  0.45778571     0.44200
C281        C  0.15368583  0.40408389  0.60299623    -0.04900
C282        C  0.16955969  0.41839345  0.63677820    -0.32300
C283        C  0.16701005  0.44084433  0.65388458     0.36900
C284        C  0.14791029  0.44849143  0.63768680    -0.05300
C285        C  0.13022049  0.43231186  0.60620543    -0.32200
C286        C  0.13314931  0.41037318  0.58868643     0.36800
H287        H  0.18530608  0.41358034  0.64812964     0.17200
O288        O  0.18396680  0.45595228  0.68537857    -0.59700
H289        H  0.11565808  0.43818323  0.59320910     0.17200
O290        O  0.11712752  0.39642441  0.55594249    -0.59800
H291        H  0.10135262  0.37796637  0.56582665     0.44200
H292        H  0.20262226  0.46974263  0.67381247     0.44200
C293        C  0.25612340  0.40891043  0.43127153    -0.04900
C294        C  0.27407621  0.43532426  0.44981552    -0.32300
C295        C  0.29818866  0.45653003  0.43070157     0.36900
C296        C  0.30457026  0.45174051  0.39188066    -0.05300
C297        C  0.28726531  0.42482188  0.37386644    -0.32200
C298        C  0.26326585  0.40335877  0.39344018     0.36800
H299        H  0.26942274  0.43959294  0.47941083     0.17200
O300        O  0.31578639  0.48177752  0.45045767    -0.59700
H301        H  0.29173494  0.42081740  0.34404690     0.17200
O302        O  0.24601051  0.37776495  0.37438928    -0.59800
H303        H  0.25461408  0.36566199  0.37972316     0.44200
H304        H  0.30457420  0.49154306  0.45409730     0.44200
C305        C  0.10548342  0.35869949  0.41860678    -0.04900
C306        C  0.08755937  0.33852420  0.39036395    -0.32300
C307        C  0.06640073  0.34167159  0.37176962     0.36900
C308        C  0.06235622  0.36480257  0.38228491    -0.05300
C309        C  0.08188922  0.38631981  0.40781610    -0.32200
C310        C  0.10339991  0.38342419  0.42597247     0.36800
H311        H  0.08928491  0.31971092  0.38377643     0.17200
O312        O  0.04855948  0.32101057  0.34528309    -0.59700
H313        H  0.07911775  0.40423193  0.41623086     0.17200
O314        O  0.12076668  0.40370901  0.45320494    -0.59800
H315        H  0.10957182  0.39864416  0.47794193     0.44200
H316        H  0.05640568  0.32889184  0.31890510     0.44200
C317        C  0.29953304  0.35004557  0.62972471    -0.04900
C318        C  0.30130459  0.36706593  0.59760363    -0.32300
C319        C  0.27672714  0.36378282  0.57980478     0.36900
C320        C  0.24982024  0.34375916  0.59479737    -0.05300
C321        C  0.24803994  0.32807861  0.62868506    -0.32200
C322        C  0.27277216  0.33086729  0.64589621     0.36800
H323        H  0.32178330  0.38178330  0.58482106     0.17200
O324        O  0.27916288  0.38012059  0.54749611    -0.59700
H325        H  0.22747617  0.31256950  0.64043167     0.17200
O326        O  0.27055593  0.31389658  0.67726092    -0.59800
H327        H  0.27237446  0.32557218  0.70107945     0.44200
H328        H  0.28280965  0.37059402  0.52486062     0.44200
C329        C  0.40121583  0.14724054  0.57485785    -0.04900
C330        C  0.40617641  0.15249735  0.61566802    -0.32300
C331        C  0.42580937  0.14710977  0.63506435     0.36900
C332        C  0.44008448  0.13559801  0.61386081    -0.05300
C333        C  0.43352270  0.12831969  0.57394111    -0.32200
C334        C  0.41457785  0.13433348  0.55427585     0.36800
H335        H  0.39610321  0.16233099  0.63202541     0.17200
O336        O  0.43263099  0.15532573  0.67381715    -0.59700
H337        H  0.44484203  0.11999053  0.55717234     0.17200
O338        O  0.40957730  0.12784169  0.51473880    -0.59800
H339        H  0.42611989  0.14363294  0.50103802     0.44200
H340        H  0.42122788  0.13754237  0.68920598     0.44200
C341        C  0.34998983  0.09953004  0.39513070    -0.04900
C342        C  0.37502465  0.09836934  0.40011792    -0.32300
C343        C  0.37734146  0.07556686  0.38398855     0.36900
C344        C  0.35449326  0.05372782  0.36229228    -0.05300
C345        C  0.33077491  0.05656787  0.35392937    -0.32200
C346        C  0.32834130  0.07916715  0.37031859     0.36800
H347        H  0.39187403  0.11381518  0.41920238     0.17200
O348        O  0.40055356  0.07312578  0.39336303    -0.59700
H349        H  0.31322712  0.04012604  0.33677960     0.17200
O350        O  0.30437593  0.08074075  0.36287038    -0.59800
H351        H  0.28941484  0.06598521  0.37990908     0.44200
H352        H  0.41520567  0.08505537  0.37371879     0.44200
C353        C  0.19941640  0.04961169  0.60985693    -0.04900
C354        C  0.19791059  0.05372527  0.56936615    -0.32300
C355        C  0.22212823  0.07347357  0.54879056     0.36900
C356        C  0.24825674  0.08973622  0.56898100    -0.05300
C357        C  0.24939931  0.08621316  0.60988309    -0.32200
C358        C  0.22523408  0.06607698  0.63023076     0.36800
H359        H  0.17812203  0.04087274  0.55343498     0.17200
O360        O  0.21988900  0.07717322  0.50915240    -0.59700
H361        H  0.26924911  0.09847846  0.62588126     0.17200
O362        O  0.22726692  0.06178897  0.66969502    -0.59800
H363        H  0.22114188  0.07406451  0.68353680     0.44200
H364        H  0.22047652  0.06096892  0.49589617     0.44200
C365        C  0.24838451  0.15375558  0.40152178    -0.04900
C366        C  0.22274510  0.12745367  0.40495993    -0.32300
C367        C  0.19733638  0.12374092  0.38891753     0.36900
C368        C  0.19728794  0.14636309  0.36829304    -0.05300
C369        C  0.22345439  0.17168138  0.36178085    -0.32200
C370        C  0.24869574  0.17568487  0.37876243     0.36800
H371        H  0.22196624  0.11026632  0.42239500     0.17200
O372        O  0.17234184  0.09909551  0.39718494    -0.59700
H373        H  0.22403875  0.18923241  0.34550173     0.17200
O374        O  0.27345765  0.20123267  0.37330495    -0.59800
H375        H  0.27284659  0.21478756  0.39277281     0.44200
H376        H  0.17121300  0.08459497  0.37790001     0.44200
C377        C  0.45670393  0.31264633  0.40043692    -0.04900
C378        C  0.45776439  0.30174971  0.43763278    -0.32300
C379        C  0.43611929  0.27492690  0.44984472     0.36900
C380        C  0.41237914  0.25877816  0.42530750    -0.05300
C381        C  0.41035892  0.27026240  0.38914653    -0.32200
C382        C  0.43247556  0.29695834  0.37643323     0.36800
H383        H  0.47593732  0.31381071  0.45694467     0.17200
O384        O  0.43792193  0.26508620  0.48640175    -0.59700
H385        H  0.39198374  0.25812827  0.37022772     0.17200
O386        O  0.43104661  0.30656233  0.33958061    -0.59800
H387        H  0.41790412  0.31419936  0.34232207     0.44200
H388        H  0.44998138  0.25627185  0.48259890     0.44200
C389        C  0.34580502  0.25224309  0.57566573    -0.04900
C390        C  0.35702087  0.27854103  0.55569622    -0.32300
C391        C  0.36199408  0.30359326  0.57547160     0.36900
C392        C  0.35581629  0.30278416  0.61592055    -0.05300
C393        C  0.34568732  0.27689331  0.63641933    -0.32200
C394        C  0.34091116  0.25176237  0.61669004     0.36800
H395        H  0.36145935  0.27961722  0.52435033     0.17200
O396        O  0.37172105  0.32856000  0.55462911    -0.59700
H397        H  0.34025546  0.27588802  0.66738591     0.17200
O398        O  0.33027339  0.22667231  0.63744387    -0.59800
H399        H  0.30933371  0.21734393  0.63478312     0.44200
H400        H  0.35442900  0.32799713  0.54412979     0.44200
C401        C  0.38170251  0.49720657  0.20605706    -0.04900
C402        C  0.38228961  0.46134857  0.20250479    -0.32300
C403        C  0.41769655  0.46186009  0.20069821     0.36900
C404        C  0.45300172  0.49791073  0.20157128    -0.05300
C405        C  0.45231048  0.03359923  0.20814318    -0.32200
C406        C  0.41659473  0.03246686  0.21274638     0.36800
H407        H  0.36290214  0.44090431  0.19953443     0.17200
O408        O  0.41773253  0.43647178  0.20248622    -0.59700
H409        H  0.47183902  0.05347557  0.21418271     0.17200
O410        O  0.41669490  0.05755406  0.21995966    -0.59800
H411        H  0.40431399  0.05346607  0.24330595     0.44200
H412        H  0.43605316  0.44057386  0.19078512     0.44200
C413        C  0.99931408  0.40168569  0.17109029    -0.04900
C414        C  0.01787118  0.42999419  0.15853970    -0.32300
C415        C  0.01810552  0.45356848  0.17707637     0.36900
C416        C  0.49865228  0.44742709  0.21220464    -0.05300
C417        C  0.47986334  0.41938946  0.22509415    -0.32200
C418        C  0.48007159  0.39561008  0.20844575     0.36800
H419        H  0.03230034  0.43394393  0.13426104     0.17200
O420        O  0.03734938  0.48082526  0.16499714    -0.59700
H421        H  0.46525607  0.41583749  0.24898971     0.17200
O422        O  0.46370674  0.36915263  0.22534871    -0.59800
H423        H  0.44370557  0.36400778  0.22062517     0.44200
H424        H  0.05356688  0.48770594  0.18366022     0.44200
C425        C  0.04940176  0.04675653  0.20389900    -0.04900
C426        C  0.07724476  0.05549312  0.21586100    -0.32300
C427        C  0.10044683  0.07815707  0.19704894     0.36900
C428        C  0.09596765  0.09188946  0.16472817    -0.05300
C429        C  0.06803574  0.08212918  0.15171461    -0.32200
C430        C  0.04486235  0.05990965  0.17121357     0.36800
H431        H  0.08101984  0.04524856  0.24068368     0.17200
O432        O  0.12720836  0.08789358  0.21209482    -0.59700
H433        H  0.06407629  0.09192008  0.12650658     0.17200
O434        O  0.01784539  0.05187408  0.15893029    -0.59800
H435        H  0.01385753  0.06651339  0.17035778     0.44200
H436        H  0.13147545  0.07227553  0.20688281     0.44200
C437        C  0.05677135  0.20057636  0.86529078    -0.04900
C438        C  0.07217152  0.19796707  0.89660117    -0.32300
C439        C  0.09415162  0.22239723  0.91494557     0.36900
C440        C  0.10143295  0.24996008  0.90152659    -0.05300
C441        C  0.08783743  0.25260238  0.86797404    -0.32200
C442        C  0.06520459  0.22807410  0.85023518     0.36800
H443        H  0.06576353  0.17700556  0.90876362     0.17200
O444        O  0.10725546  0.21919884  0.94754972    -0.59700
H445        H  0.09332404  0.27371324  0.85735018     0.17200
O446        O  0.05085672  0.23114218  0.81907405    -0.59800
H447        H  0.03862387  0.23801346  0.83088351     0.44200
H448        H  0.12417924  0.21894933  0.93719040     0.44200
C449        C  0.14822041  0.23996829  0.06686909    -0.04900
C450        C  0.14851533  0.21976907  0.04091370    -0.32300
C451        C  0.14374533  0.19338804  0.05481748     0.36900
C452        C  0.13887548  0.18707423  0.09534905    -0.05300
C453        C  0.13701940  0.20666364  0.12104654    -0.32200
C454        C  0.14162668  0.23311085  0.10691530     0.36800
H455        H  0.15284811  0.22464568  0.00980606     0.17200
O456        O  0.14412473  0.17388564  0.02875588    -0.59700
H457        H  0.13349643  0.20209756  0.15230986     0.17200
O458        O  0.14080711  0.25252812  0.13258843    -0.59800
H459        H  0.15999150  0.26298199  0.14477735     0.44200
H460        H  0.16433584  0.18189983  0.02139912     0.44200
C461        C  0.16211635  0.40982168  0.91622341    -0.04900
C462        C  0.16812640  0.41516611  0.87577884    -0.32300
C463        C  0.16266208  0.43470854  0.85608807     0.36900
C464        C  0.15047123  0.44866171  0.87661155    -0.05300
C465        C  0.14336499  0.44248589  0.91644777    -0.32200
C466        C  0.14922353  0.42338207  0.93637007     0.36800
H467        H  0.17781693  0.40481827  0.85971121     0.17200
O468        O  0.17046166  0.44103159  0.81730847    -0.59700
H469        H  0.13432622  0.45345372  0.93258569     0.17200
O470        O  0.14168351  0.41765064  0.97534253    -0.59800
H471        H  0.15724289  0.43377653  0.99037815     0.44200
H472        H  0.15267940  0.42960563  0.80188723     0.44200
C473        C  0.09133239  0.34558177  0.06752219    -0.04900
C474        C  0.09558273  0.35895646  0.10480272    -0.32300
C475        C  0.07442352  0.36333366  0.12182634     0.36900
C476        C  0.04893560  0.35482163  0.10104219    -0.05300
C477        C  0.04576483  0.34321165  0.06272432    -0.32200
C478        C  0.06634477  0.33808790  0.04634922     0.36800
H479        H  0.11491875  0.36514091  0.12125990     0.17200
O480        O  0.07808434  0.37414062  0.15955000    -0.59700
H481        H  0.02663022  0.33711912  0.04578505     0.17200
O482        O  0.06217564  0.32643947  0.00905278    -0.59800
H483        H  0.04996392  0.30540371  0.01263990     0.44200
H484        H  0.09026815  0.39525538  0.15682802     0.44200
C485        C  0.28392651  0.44005285  0.15141198    -0.04900
C486        C  0.29015609  0.42139153  0.13011495    -0.32300
C487        C  0.26945025  0.39953471  0.10617914     0.36900
C488        C  0.24222569  0.39645069  0.10301650    -0.05300
C489        C  0.23529112  0.41329284  0.12724954    -0.32200
C490        C  0.25586876  0.43489109  0.15148904     0.36800
H491        H  0.31170049  0.42523958  0.12943095     0.17200
O492        O  0.27693771  0.38340028  0.08296534    -0.59700
H493        H  0.21416475  0.41054671  0.12612112     0.17200
O494        O  0.24879409  0.45168867  0.17404482    -0.59800
H495        H  0.24501022  0.46333688  0.15506631     0.44200
H496        H  0.27402237  0.36714624  0.09980434     0.44200
C497        C  0.25953524  0.34891094  0.91862372    -0.04900
C498        C  0.28439850  0.35932117  0.94149865    -0.32300
C499        C  0.30983254  0.36424583  0.92452881     0.36900
C500        C  0.31076490  0.35845910  0.88418381    -0.05300
C501        C  0.28638704  0.34908417  0.86077326    -0.32200
C502        C  0.26091431  0.34464086  0.87762587     0.36800
H503        H  0.28400315  0.36308883  0.97292778     0.17200
O504        O  0.33323317  0.37270612  0.94819366    -0.61500
H505        H  0.28674494  0.34387720  0.82986722     0.17200
O506        O  0.23704620  0.33399750  0.85439297    -0.59800
H507        H  0.23796023  0.35110657  0.84209356     0.44200
H508        H  0.34422561  0.39395663  0.94628177     0.44200
C509        C  0.25429207  0.09619043  0.89930119    -0.04900
C510        C  0.22787889  0.09210010  0.91141579    -0.32300
C511        C  0.20284356  0.07170972  0.89264596     0.36900
C512        C  0.20402259  0.05465027  0.86179884    -0.05300
C513        C  0.23062219  0.06014330  0.84789471    -0.32200
C514        C  0.25575719  0.08093589  0.86638448     0.36800
H515        H  0.22657584  0.10378332  0.93681855     0.17200
O516        O  0.17722477  0.06629527  0.90767559    -0.59700
H517        H  0.23175474  0.04683418  0.82458706     0.17200
O518        O  0.28137029  0.08458831  0.85410177    -0.59800
H519        H  0.28376588  0.06997428  0.86858001     0.44200
H520        H  0.17207465  0.07867451  0.89237396     0.44200
C521        C  0.19375435  0.13776553  0.10688767    -0.04900
C522        C  0.21985609  0.16183706  0.11740615    -0.32300
C523        C  0.24512727  0.16564355  0.10163871     0.36900
C524        C  0.24451171  0.14508918  0.07507416    -0.05300
C525        C  0.21864057  0.11984037  0.06705023    -0.32200
C526        C  0.19323927  0.11621225  0.08250318     0.36800
H527        H  0.22046224  0.17844760  0.13642320     0.17200
O528        O  0.27016541  0.19005154  0.11121537    -0.59700
H529        H  0.21787009  0.10376024  0.04678697     0.17200
O530        O  0.16798033  0.09257619  0.07147119    -0.59800
H531        H  0.16185970  0.09845070  0.04743330     0.44200
H532        H  0.27841255  0.18435709  0.13307442     0.44200
C533        C  0.36079471  0.30469902  0.88707954    -0.04900
C534        C  0.36525175  0.30376480  0.92756080    -0.32300
C535        C  0.36049754  0.27834650  0.94486380     0.36900
C536        C  0.35099147  0.25328600  0.92148281    -0.05300
C537        C  0.34822541  0.25474622  0.88045469    -0.32200
C538        C  0.35270523  0.28027183  0.86325016     0.36800
H539        H  0.37128136  0.32252957  0.94605374     0.17200
O540        O  0.36452291  0.27807374  0.98484389    -0.59700
H541        H  0.34120902  0.23576455  0.86207141     0.17200
O542        O  0.34810625  0.28089241  0.82353397    -0.59800
H543        H  0.32763827  0.27463263  0.82097361     0.44200
H544        H  0.38426395  0.28195948  0.98792287     0.44200
C545        C  0.41317275  0.15739301  0.91786921    -0.04900
C546        C  0.42656627  0.14449231  0.93758731    -0.32300
C547        C  0.44741685  0.14084662  0.91886935     0.36900
C548        C  0.45551606  0.15048779  0.88004307    -0.05300
C549        C  0.44212188  0.16318032  0.85998944    -0.32200
C550        C  0.42087904  0.16648351  0.87852748     0.36800
H551        H  0.42093114  0.13727534  0.96775629     0.17200
O552        O  0.46092861  0.12929262  0.93950873    -0.59700
H553        H  0.44863138  0.17112273  0.83028002     0.17200
O554        O  0.40851857  0.17944863  0.85841934    -0.59800
H555        H  0.42042127  0.20024745  0.86465105     0.44200
H556        H  0.45010724  0.10840980  0.93334941     0.44200
C557        C  0.40087761  0.24599852  0.09111461    -0.04900
C558        C  0.40174463  0.27221706  0.08473893    -0.32300
C559        C  0.42352591  0.29784562  0.10098103     0.36900
C560        C  0.44450826  0.29734914  0.12469701    -0.05300
C561        C  0.44207094  0.27076357  0.13397534    -0.32200
C562        C  0.42067353  0.24523740  0.11696139     0.36800
H563        H  0.38669486  0.27319554  0.06477812     0.17200
O564        O  0.42582819  0.32342271  0.08999521    -0.59700
H565        H  0.45786040  0.27001513  0.15263839     0.17200
O566        O  0.41948721  0.21974875  0.12533881    -0.59800
H567        H  0.43407378  0.21927928  0.10829644     0.44200
H568        H  0.41182146  0.32539713  0.10646338     0.44200
C569        C  0.33482459  0.04344872  0.13563093    -0.04900
C570        C  0.35906209  0.06092708  0.11298747    -0.32300
C571        C  0.35980968  0.08198144  0.08809487     0.36900
C572        C  0.33582611  0.08533392  0.08480079    -0.05300
C573        C  0.31185614  0.06831338  0.10788567    -0.32200
C574        C  0.31140946  0.04793324  0.13363071     0.36800
H575        H  0.37709871  0.05758890  0.11339968     0.17200
O576        O  0.38340611  0.09795985  0.06535163    -0.59700
H577        H  0.29350098  0.07111720  0.10640085     0.17200
O578        O  0.28776579  0.03222537  0.15639757    -0.59800
H579        H  0.29185697  0.04299615  0.18170612     0.44200
H580        H  0.39695302  0.11384075  0.08284836     0.44200
C581        C  0.45750942  0.44947864  0.79331853    -0.04900
C582        C  0.44286332  0.45492790  0.82302015    -0.32300
C583        C  0.41940060  0.43217897  0.84163678     0.36900
C584        C  0.41033040  0.40346655  0.83043910    -0.05300
C585        C  0.42654108  0.39824760  0.80274987    -0.32200
C586        C  0.45016133  0.42095901  0.78463968     0.36800
H587        H  0.44880608  0.47687528  0.83052126     0.17200
O588        O  0.40600660  0.43818725  0.87142230    -0.59700
H589        H  0.42042633  0.37646913  0.79404542     0.17200
O590        O  0.46587342  0.41525680  0.75814785    -0.59800
H591        H  0.45271260  0.40414169  0.73625523     0.44200
H592        H  0.39685055  0.44800042  0.85858902     0.44200
C593        C  0.99918714  0.04707412  0.79506863    -0.04900
C594        C  0.01990171  0.06457950  0.82276952    -0.32300
C595        C  0.02017383  0.08868090  0.83928797     0.36900
C596        C  0.99963634  0.09592712  0.82755577    -0.05300
C597        C  0.47862142  0.07708260  0.80322837    -0.32200
C598        C  0.47730716  0.05208698  0.78826830     0.36800
H599        H  0.03658332  0.06033846  0.83047704     0.17200
O600        O  0.04090517  0.10517170  0.86635263    -0.59700
H601        H  0.46149100  0.08100639  0.79602814     0.17200
O602        O  0.45418647  0.03323647  0.76608423    -0.59800
H603        H  0.44270319  0.01678072  0.78371670     0.44200
H604        H  0.03189016  0.09841613  0.89249716     0.44200
C605        C  0.05017590  0.49778766  0.79114882    -0.04900
C606        C  0.05317755  0.47365630  0.78455164    -0.32300
C607        C  0.07709055  0.47288485  0.79834281     0.36900
C608        C  0.10112044  0.99821125  0.82136656    -0.05300
C609        C  0.09745837  0.02201685  0.82814360    -0.32200
C610        C  0.07397731  0.02288411  0.81282638     0.36800
H611        H  0.03762085  0.45594485  0.76665487     0.17200
O612        O  0.08014785  0.44992795  0.78777920    -0.59700
H613        H  0.11310216  0.04045913  0.84485589     0.17200
O614        O  0.07285201  0.04765500  0.81647669    -0.59800
H615        H  0.07244610  0.05086814  0.84531943     0.44200
H616        H  0.09023620  0.45525314  0.76213898     0.44200
C617        C  0.45018983  0.45230539  0.70503909    -0.04900
C618        C  0.42316647  0.44291903  0.72143281    -0.32300
C619        C  0.39901276  0.41809459  0.70752213     0.36900
C620        C  0.40093485  0.40310054  0.67443377    -0.05300
C621        C  0.42713855  0.41449052  0.65490885    -0.32200
C622        C  0.45168135  0.43890348  0.66984298     0.36800
H623        H  0.42092479  0.45394856  0.74684199     0.17200
O624        O  0.37415465  0.40745805  0.72838507    -0.59700
H625        H  0.42870529  0.40419876  0.62814811     0.17200
O626        O  0.47681521  0.44957255  0.64974760    -0.59800
H627        H  0.47889642  0.43282214  0.64251500     0.44200
H628        H  0.36738354  0.42125048  0.72412441     0.44200
C629        C  0.00307924  0.05001228  0.70640478    -0.04900
C630        C  0.02224651  0.07887685  0.71600707    -0.32300
C631        C  0.02019984  0.10120791  0.69828176     0.36900
C632        C  0.99917594  0.09499578  0.66925222    -0.05300
C633        C  0.48019003  0.06718002  0.65978239    -0.32200
C634        C  0.48187301  0.04452375  0.67723490     0.36800
H635        H  0.03832734  0.08413075  0.73850453     0.17200
O636        O  0.03758225  0.12885476  0.71154812    -0.59700
H637        H  0.46375884  0.06212162  0.63794518     0.17200
O638        O  0.46205425  0.01673159  0.66742909    -0.59800
H639        H  0.44671112  0.01088427  0.68720633     0.44200
H640        H  0.05700152  0.13407089  0.70294210     0.44200
C641        C  0.05407161  0.00340986  0.70456133    -0.04900
C642        C  0.08095000  0.02818609  0.70749086    -0.32300
C643        C  0.10514050  0.02861271  0.69229457     0.36900
C644        C  0.10257400  0.00408177  0.67266480    -0.05300
C645        C  0.07444476  0.48287743  0.66531535    -0.32200
C646        C  0.05027044  0.48167242  0.68159433     0.36800
H647        H  0.08342085  0.04675845  0.72373718     0.17200
O648        O  0.13131808  0.05216641  0.69987212    -0.59700
H649        H  0.07172862  0.46498126  0.64719583     0.17200
O650        O  0.02460928  0.45698493  0.67734262    -0.59800
H651        H  0.02413976  0.44391815  0.69818611     0.44200
H652        H  0.13216437  0.06783117  0.68358858     0.44200
C653        C  0.50373959  0.50009566  0.78657189     0.46000
H654        H  0.50443755  0.49977325  0.81936254    -0.03000
C655        C  0.00387644  0.00104273  0.71044641     0.46100
H656        H  0.00392861  0.00163637  0.67768616    -0.03000
C657        C  0.47759228  0.97343961  0.76613362    -0.16700
C658        C  0.50171026  0.52553010  0.76977797    -0.16400
C659        C  0.03066354  0.00144504  0.76872389    -0.16800
C660        C  0.47669035  0.97461600  0.72535554    -0.16800
C661        C  0.50163229  0.52637341  0.72906165    -0.16400
C662        C  0.03030805  0.00170939  0.72824306    -0.16700
O663        O  0.31317888  0.60119486  0.03774256    -0.77900
C664        C  0.26994118  0.64916706  0.05424222     0.83100
O665        O  0.29782579  0.63511171  0.90817859    -0.79000
O666        O  0.32729809  0.71935185  0.97159368    -0.80500
O667        O  0.38786815  0.70443287  0.05088001    -0.80300
O668        O  0.35798726  0.63286675  0.05412246    -0.78900
Zn669      Zn  0.30022971  0.62472083  0.00714739     1.55700
O670        O  0.35618357  0.71904783  0.05376779    -0.80300
Cd671      Cd  0.36685372  0.66673743  0.01772505     1.59700
Cd672      Cd  0.33543260  0.66618960  0.93510818     1.59600
O673        O  0.39177477  0.66463606  0.97368757    -0.80300
O674        O  0.33153519  0.66188864  0.99375028    -1.90800
Cd675      Cd  0.32489299  0.69221653  0.01518569     1.59900
O676        O  0.36903559  0.66111445  0.91699953    -0.80300
O677        O  0.28730261  0.67503649  0.04484478    -0.78900
C678        C  0.27710967  0.61244057  0.92275147     0.83600
C679        C  0.33600932  0.60804597  0.05675504     0.83200
O680        O  0.27304765  0.62839699  0.04271835    -0.77900
C681        C  0.38005485  0.72187343  0.06319654     0.84100
O682        O  0.27678348  0.60547027  0.95874288    -0.78000
C683        C  0.38930454  0.66134266  0.93627054     0.84200
C684        C  0.33816098  0.72452563  0.93723368     0.84500
O685        O  0.34374878  0.70702989  0.91918613    -0.80400
C686        C  0.38123163  0.87857076  0.84285579     0.03700
C687        C  0.35650472  0.88042077  0.84941860    -0.12500
C688        C  0.33229552  0.85737265  0.86632067     0.01200
C689        C  0.33224384  0.83212032  0.87524528    -0.11000
C690        C  0.35630357  0.82977110  0.86893150     0.03700
C691        C  0.38077733  0.85288406  0.85284102    -0.10400
H692        H  0.35601836  0.89968855  0.84201147     0.09300
H693        H  0.31380174  0.81467024  0.88938620     0.06800
H694        H  0.39970670  0.85121473  0.84972540     0.06700
O695        O  0.13776597  0.85858543  0.05263681    -0.77900
C696        C  0.22149454  0.87671783  0.07471975     0.83100
O697        O  0.16272503  0.86684282  0.92242794    -0.79000
O698        O  0.22871337  0.83520184  0.97392506    -0.80500
O699        O  0.13744213  0.77370652  0.05371370    -0.80300
O700        O  0.10555591  0.81339912  0.03720206    -0.78900
Zn701      Zn  0.17219887  0.86625840  0.02144416     1.55700
O702        O  0.18090609  0.78332791  0.03607091    -0.80300
Cd703      Cd  0.13169129  0.79919837  0.01398765     1.59700
Cd704      Cd  0.17033707  0.83428027  0.93913731     1.59600
O705        O  0.11330554  0.77237702  0.96592893    -0.80300
O706        O  0.16852867  0.83200725  0.99802041    -1.90800
Cd707      Cd  0.19895139  0.82558968  0.01777860     1.59900
O708        O  0.14010504  0.79525469  0.91380102    -0.80300
O709        O  0.22062282  0.85348078  0.06417894    -0.78900
C710        C  0.16605383  0.88873688  0.94200580     0.83600
C711        C  0.11238154  0.83765911  0.05299688     0.83200
O712        O  0.20539742  0.88481201  0.05900056    -0.77900
C713        C  0.15695454  0.76724078  0.05248636     0.84100
O714        O  0.17300103  0.89219297  0.97848851    -0.78000
C715        C  0.11929428  0.77319364  0.92938585     0.84200
C716        C  0.23065752  0.84262557  0.93783247     0.84500
O717        O  0.21052937  0.84371941  0.92004504    -0.80400
C718        C  0.12096666  0.61531532  0.14613150     0.03700
C719        C  0.11969119  0.63960806  0.13347014    -0.12500
C720        C  0.14290141  0.66204062  0.11401967     0.01200
C721        C  0.16781501  0.66097507  0.10947286    -0.11000
C722        C  0.16925330  0.63698295  0.12128019     0.03700
C723        C  0.14566654  0.61390371  0.13872237    -0.10400
H724        H  0.10070919  0.64095520  0.13819473     0.09300
H725        H  0.18600759  0.67862804  0.09525096     0.06800
H726        H  0.14660300  0.59486294  0.14611825     0.06700
C727        C  0.12502602  0.49715870  0.83414794     0.03700
C728        C  0.15097124  0.52367096  0.83582356    -0.12500
C729        C  0.17592739  0.52503904  0.84975059     0.01200
C730        C  0.17547759  0.49978522  0.86006302    -0.11000
C731        C  0.15186329  0.97587628  0.86491852     0.03700
C732        C  0.12700107  0.97440755  0.85054733    -0.10400
H733        H  0.15187115  0.54344421  0.82721442     0.09300
H734        H  0.19455453  0.50088089  0.87181747     0.06800
H735        H  0.10712873  0.95433842  0.85300042     0.06700
C736        C  0.99879686  0.87530716  0.15137737     0.03700
C737        C  0.02397446  0.87615069  0.13844773    -0.12500
C738        C  0.02263236  0.85191780  0.11987768     0.01200
C739        C  0.99628665  0.82672993  0.11593457    -0.11000
C740        C  0.47066559  0.82431997  0.13108582     0.03700
C741        C  0.47199613  0.84885191  0.14783731    -0.10400
H742        H  0.04435470  0.89553975  0.14235016     0.09300
H743        H  0.99514494  0.80784776  0.10233444     0.06800
H744        H  0.45234934  0.84824323  0.15504820     0.06700
C745        C  0.00054476  0.62229749  0.84103039     0.03700
C746        C  0.47592090  0.62285034  0.85180601    -0.12500
C747        C  0.47758950  0.64878829  0.86300444     0.01200
C748        C  0.00633733  0.67542884  0.86345716    -0.11000
C749        C  0.03053900  0.67378109  0.85442904     0.03700
C750        C  0.02759815  0.64736823  0.84254353    -0.10400
H751        H  0.45551095  0.60317736  0.85245731     0.09300
H752        H  0.00863248  0.69546288  0.87458257     0.06800
H753        H  0.04648501  0.64642123  0.83527510     0.06700
C754        C  0.35478278  0.99596376  0.19499456     0.03700
C755        C  0.32950918  0.96928863  0.19060787    -0.12500
C756        C  0.30669272  0.96695304  0.16834929     0.01200
C757        C  0.30856659  0.99165152  0.15220505    -0.11000
C758        C  0.33398866  0.51984896  0.15496869     0.03700
C759        C  0.35686725  0.52164921  0.17670537    -0.10400
H760        H  0.32793823  0.94989595  0.20214454     0.09300
H761        H  0.29191905  0.98947873  0.13244861     0.06800
H762        H  0.37612262  0.54215089  0.17860738     0.06700
O763        O  0.36450860  0.64419409  0.43148910    -0.77900
C764        C  0.38850189  0.73174856  0.43699428     0.83100
O765        O  0.36279218  0.65816900  0.57191223    -0.79000
O766        O  0.33375601  0.72699767  0.51606221    -0.80500
O767        O  0.27555643  0.63730472  0.43422411    -0.80300
O768        O  0.31882697  0.61042695  0.43705970    -0.78900
Zn769      Zn  0.36968747  0.67348994  0.47325957     1.55700
O770        O  0.29120148  0.68430850  0.43802858    -0.80300
Cd771      Cd  0.30235060  0.63100522  0.47011237     1.59700
Cd772      Cd  0.33263632  0.66733583  0.54938795     1.59600
O773        O  0.27615443  0.60663787  0.51571819    -0.80300
O774        O  0.33368708  0.66787859  0.49040120    -1.90800
Cd775      Cd  0.32930922  0.69982257  0.46930151     1.59900
O776        O  0.29315548  0.63540246  0.56874856    -0.80300
O777        O  0.36301446  0.72640072  0.43346329    -0.78900
C778        C  0.38347354  0.65823405  0.55411001     0.83600
C779        C  0.34357498  0.61943619  0.42279723     0.83200
O780        O  0.39448156  0.71430512  0.45393524    -0.77900
C781        C  0.27309247  0.65899082  0.42596989     0.84100
O782        O  0.38853428  0.66507480  0.51787219    -0.78000
C783        C  0.27410521  0.61251024  0.55175399     0.84200
C784        C  0.33984657  0.72786520  0.55271138     0.84500
O785        O  0.34077344  0.70721718  0.56962250    -0.80400
C786        C  0.37641657  0.87790953  0.65818393     0.03700
C787        C  0.37915554  0.85394417  0.64765790    -0.12500
C788        C  0.35516822  0.82806501  0.63545557     0.01200
C789        C  0.32858692  0.82605561  0.63420638    -0.11000
C790        C  0.32590209  0.85000750  0.64253068     0.03700
C791        C  0.34974425  0.87583669  0.65441810    -0.10400
H792        H  0.39977220  0.85547521  0.64840474     0.09300
H793        H  0.31039966  0.80656524  0.62285202     0.06800
H794        H  0.34766257  0.89464637  0.65900904     0.06700
O795        O  0.11508458  0.82680316  0.45656693    -0.77900
C796        C  0.15551759  0.77228462  0.45048851     0.83100
O797        O  0.13123712  0.78895384  0.58304204    -0.79000
O798        O  0.22462041  0.83367223  0.53478972    -0.80500
O799        O  0.21776757  0.89624313  0.47444213    -0.80300
O800        O  0.14797756  0.87333832  0.45959837    -0.78900
Zn801      Zn  0.13177486  0.80674173  0.48714266     1.55700
O802        O  0.22242936  0.86030521  0.44968650    -0.80300
Cd803      Cd  0.17722691  0.87382903  0.49882195     1.59700
Cd804      Cd  0.16520276  0.82902976  0.56987641     1.59600
O805        O  0.17239325  0.89302895  0.54874905    -0.80300
O806        O  0.16707755  0.83418378  0.51143724    -1.90800
Cd807      Cd  0.19747492  0.82878486  0.48979719     1.59900
O808        O  0.15915139  0.86035949  0.59667855    -0.80300
O809        O  0.18000902  0.78830566  0.46569974    -0.78900
C810        C  0.10848973  0.77354432  0.56330359     0.83600
C811        C  0.12397371  0.85298552  0.44772738     0.83200
O812        O  0.13613421  0.77891573  0.45173985    -0.77900
C813        C  0.23083381  0.88703328  0.45281837     0.84100
O814        O  0.10513615  0.78048189  0.52858304    -0.78000
C815        C  0.16356447  0.88442814  0.58364584     0.84200
C816        C  0.22419468  0.83546517  0.57226855     0.84500
O817        O  0.20278954  0.83308236  0.59094932    -0.80400
C818        C  0.12725609  0.50458893  0.66068147     0.03700
C819        C  0.12853526  0.97679529  0.66129910    -0.12500
C820        C  0.15192970  0.97506548  0.64744134     0.01200
C821        C  0.17476128  0.50141957  0.63510333    -0.11000
C822        C  0.17546680  0.52771739  0.63438437     0.03700
C823        C  0.15161608  0.52924686  0.64654503    -0.10400
H824        H  0.11069376  0.95769924  0.67345890     0.09300
H825        H  0.19256493  0.50000976  0.62333290     0.06800
H826        H  0.15188120  0.54941835  0.64388328     0.06700
C827        C  0.99486206  0.61884265  0.65203418     0.03700
C828        C  0.46915750  0.61754122  0.64581114    -0.12500
C829        C  0.46720016  0.64031065  0.62903359     0.01200
C830        C  0.99053580  0.66375205  0.61743663    -0.11000
C831        C  0.01723256  0.66662634  0.62279539     0.03700
C832        C  0.01945905  0.64432089  0.64030666    -0.10400
H833        H  0.44987243  0.59761924  0.65235365     0.09300
H834        H  0.98883454  0.68091090  0.60343244     0.06800
H835        H  0.04023549  0.64644531  0.64336174     0.06700
C836        C  0.50718399  0.88898178  0.35997308     0.03700
C837        C  0.48167205  0.86318309  0.36829284    -0.12500
C838        C  0.48241272  0.83992076  0.38567075     0.01200
C839        C  0.50866916  0.84191695  0.39246479    -0.11000
C840        C  0.03486682  0.86618173  0.38199822     0.03700
C841        C  0.03408006  0.89024470  0.36808945    -0.10400
H842        H  0.46131148  0.86122470  0.36177496     0.09300
H843        H  0.50935354  0.82382250  0.40514657     0.06800
H844        H  0.05394776  0.91005072  0.36399900     0.06700
C845        C  0.11802205  0.62115240  0.34842679     0.03700
C846        C  0.14418739  0.62147327  0.34848977    -0.12500
C847        C  0.16891034  0.64523739  0.36416698     0.01200
C848        C  0.16725292  0.66870331  0.37874943    -0.11000
C849        C  0.14144956  0.66831727  0.38063164     0.03700
C850        C  0.11693213  0.64478527  0.36474715    -0.10400
H851        H  0.14540721  0.60354518  0.33600041     0.09300
H852        H  0.18615912  0.68713534  0.39067380     0.06800
H853        H  0.09690093  0.64449992  0.36610897     0.06700
C854        C  0.37169985  0.49788056  0.33180194     0.03700
C855        C  0.37291918  0.52460495  0.33477698    -0.12500
C856        C  0.35124532  0.52685618  0.35383315     0.01200
C857        C  0.32829937  0.50223679  0.36963568    -0.11000
C858        C  0.32902250  0.97464056  0.37088024     0.03700
C859        C  0.35025039  0.97222633  0.35020894    -0.10400
H860        H  0.39090297  0.54364894  0.32267746     0.09300
H861        H  0.31154139  0.50402477  0.38430585     0.06800
H862        H  0.34980470  0.95187301  0.34918830     0.06700
C863        C  0.50084487  0.99801765  0.20801303     0.46000
H864        H  0.50231809  0.99670779  0.17542796    -0.03000
C865        C  0.49530284  0.00122114  0.28438014     0.46100
H866        H  0.49379013  0.00236034  0.31688551    -0.03000
C867        C  0.02444660  0.52565228  0.22831055    -0.16700
C868        C  0.47432030  0.99802920  0.22144486    -0.16400
C869        C  0.49982949  0.97290607  0.23037074    -0.16800
C870        C  0.02166723  0.52698216  0.26865828    -0.16800
C871        C  0.47028906  0.99973469  0.25968810    -0.16400
C872        C  0.49769961  0.97497635  0.27079073    -0.16700
C873        C  0.39576686  0.49678755  0.31282691    -0.04900
C874        C  0.39360499  0.48708829  0.27374087    -0.32300
C875        C  0.41784918  0.49543873  0.24524458     0.36900
C876        C  0.44369265  0.00087032  0.27241220    -0.05300
C877        C  0.44544880  0.00945338  0.31222969    -0.32200
C878        C  0.42290075  0.00850009  0.33162712     0.36800
H879        H  0.37129877  0.47441953  0.26593634     0.17200
O880        O  0.41735798  0.49858611  0.18119644    -0.59700
H881        H  0.46492365  0.01766181  0.32894307     0.17200
O882        O  0.42608159  0.01830243  0.36991930    -0.59800
H883        H  0.42106099  0.00130587  0.38655211     0.44200
H884        H  0.42342950  0.51193760  0.15747202     0.44200
C885        C  0.04330526  0.55081959  0.29378128    -0.04900
C886        C  0.05896001  0.54511237  0.32149815    -0.32300
C887        C  0.08318124  0.56769799  0.33985479     0.36900
C888        C  0.09181468  0.59654743  0.33096051    -0.05300
C889        C  0.07502806  0.60209435  0.30496692    -0.32200
C890        C  0.05103926  0.57956566  0.28638696     0.36800
H891        H  0.05315969  0.52308091  0.32755726     0.17200
O892        O  0.09786205  0.56140039  0.36712920    -0.59700
H893        H  0.08098625  0.62404962  0.29808394     0.17200
O894        O  0.03518236  0.58570820  0.26095390    -0.59800
H895        H  0.04807972  0.59661119  0.23895244     0.44200
H896        H  0.10788779  0.55347308  0.35166886     0.44200
C897        C  0.50655131  0.91350274  0.34040993    -0.04900
C898        C  0.48436131  0.91917909  0.34844910    -0.32300
C899        C  0.48182058  0.94016721  0.32742605     0.36900
C900        C  0.50198614  0.95633123  0.29859771    -0.05300
C901        C  0.02526410  0.95177891  0.29179840    -0.32200
C902        C  0.02737051  0.93010802  0.31116462     0.36800
H903        H  0.46844258  0.90684165  0.37036280     0.17200
O904        O  0.45844184  0.94309812  0.33302930    -0.59700
H905        H  0.04079143  0.96405471  0.26934609     0.17200
O906        O  0.04769167  0.92388670  0.29866992    -0.59800
H907        H  0.06618086  0.94073252  0.30652028     0.44200
H908        H  0.46327185  0.95632152  0.35599389     0.44200
C909        C  0.08574304  0.74603404  0.57964722    -0.04900
C910        C  0.06440078  0.72634473  0.55394816    -0.32300
C911        C  0.04298370  0.69985170  0.56741926     0.36900
C912        C  0.04222706  0.69256018  0.60738786    -0.05300
C913        C  0.06382039  0.71160742  0.63307044    -0.32200
C914        C  0.08546451  0.73827985  0.61954871     0.36800
H915        H  0.06429181  0.73132442  0.52302262     0.17200
O916        O  0.02248657  0.68134529  0.54136673    -0.59700
H917        H  0.06331221  0.70622830  0.66395359     0.17200
O918        O  0.10592455  0.75661403  0.64571388    -0.59800
H919        H  0.09827923  0.76828079  0.65748071     0.44200
H920        H  0.02922898  0.66833189  0.53180911     0.44200
C921        C  0.14915124  0.74450204  0.43329495    -0.04900
C922        C  0.15915512  0.72859827  0.45314964    -0.32300
C923        C  0.15480069  0.70263859  0.43758995     0.36900
C924        C  0.14091778  0.69253977  0.40084494    -0.05300
C925        C  0.12934427  0.70755196  0.38203679    -0.32200
C926        C  0.13301156  0.73325560  0.39844567     0.36800
H927        H  0.17041099  0.73632033  0.48101171     0.17200
O928        O  0.16383298  0.68696153  0.45868237    -0.59700
H929        H  0.11847354  0.69997521  0.35391965     0.17200
O930        O  0.12228106  0.74803827  0.37904181    -0.59800
H931        H  0.10251556  0.73977805  0.38872476     0.44200
H932        H  0.18486520  0.69880102  0.45964211     0.44200
C933        C  0.15657532  0.90256949  0.60814090    -0.04900
C934        C  0.17503435  0.91990701  0.63825088    -0.32300
C935        C  0.17214883  0.94235879  0.65461181     0.36900
C936        C  0.15033292  0.94710849  0.64116213    -0.05300
C937        C  0.13032802  0.92787983  0.61383487    -0.32200
C938        C  0.13347574  0.90585283  0.59711907     0.36800
H939        H  0.19282199  0.91740670  0.64697459     0.17200
O940        O  0.19139023  0.96037391  0.68234772    -0.59700
H941        H  0.11369070  0.93149445  0.60281690     0.17200
O942        O  0.11524665  0.88910819  0.56759936    -0.59800
H943        H  0.09994501  0.87207851  0.58115611     0.44200
H944        H  0.20904837  0.97285141  0.66754022     0.44200
C945        C  0.25690091  0.90805590  0.43202308    -0.04900
C946        C  0.27608042  0.93358761  0.45163290    -0.32300
C947        C  0.30054220  0.95453348  0.43273594     0.36900
C948        C  0.30602966  0.95041479  0.39315556    -0.05300
C949        C  0.28749841  0.92431200  0.37401573    -0.32200
C950        C  0.26317387  0.90306927  0.39332023     0.36800
H951        H  0.27210252  0.93735091  0.48185306     0.17200
O952        O  0.31928029  0.97890965  0.45331747    -0.59700
H953        H  0.29127422  0.92086280  0.34357429     0.17200
O954        O  0.24478115  0.87834539  0.37326048    -0.59800
H955        H  0.25254613  0.86530906  0.37679820     0.44200
H956        H  0.30924453  0.98980360  0.45767389     0.44200
C957        C  0.10522812  0.85988217  0.42461163    -0.04900
C958        C  0.08672708  0.84004429  0.39648116    -0.32300
C959        C  0.06547177  0.84362458  0.37905705     0.36900
C960        C  0.06183701  0.86681973  0.39068827    -0.05300
C961        C  0.08180167  0.88796258  0.41624261    -0.32200
C962        C  0.10345034  0.88465506  0.43320095     0.36800
H963        H  0.08814197  0.82118260  0.38895887     0.17200
O964        O  0.04718260  0.82335096  0.35249718    -0.59700
H965        H  0.07934674  0.90592587  0.42546470     0.17200
O966        O  0.12135139  0.90463874  0.46035690    -0.59800
H967        H  0.11120830  0.89852037  0.48593310     0.44200
H968        H  0.05621230  0.83014982  0.32634222     0.44200
C969        C  0.29977655  0.84943424  0.63014019    -0.04900
C970        C  0.30137778  0.86624427  0.59784996    -0.32300
C971        C  0.27673556  0.86213269  0.57941520     0.36900
C972        C  0.24995573  0.84148769  0.59396928    -0.05300
C973        C  0.24826058  0.82587125  0.62786778    -0.32200
C974        C  0.27308871  0.82949669  0.64571863     0.36800
H975        H  0.32182789  0.88147407  0.58545628     0.17200
O976        O  0.27899077  0.87841097  0.54711626    -0.59700
H977        H  0.22774881  0.80994380  0.63928433     0.17200
O978        O  0.27110487  0.81268296  0.67716999    -0.59800
H979        H  0.27249628  0.82423270  0.70093453     0.44200
H980        H  0.28315988  0.86922004  0.52457034     0.44200
C981        C  0.40183056  0.64950516  0.57516214    -0.04900
C982        C  0.40567178  0.65304038  0.61637043    -0.32300
C983        C  0.42513697  0.64729953  0.63564338     0.36900
C984        C  0.44040678  0.63716823  0.61384796    -0.05300
C985        C  0.43503614  0.63167650  0.57336508    -0.32200
C986        C  0.41627139  0.63802802  0.55390362     0.36800
H987        H  0.39474544  0.66170238  0.63331068     0.17200
O988        O  0.43071171  0.65375867  0.67506084    -0.59700
H989        H  0.44710835  0.62443786  0.55616493     0.17200
O990        O  0.41247643  0.63319723  0.51390564    -0.59800
H991        H  0.42909315  0.64988869  0.50167967     0.44200
H992        H  0.41922011  0.63521057  0.68879875     0.44200
C993        C  0.34832032  0.59983339  0.39736885    -0.04900
C994        C  0.37330614  0.59854380  0.40201480    -0.32300
C995        C  0.37573768  0.57609712  0.38481232     0.36900
C996        C  0.35316228  0.55486400  0.36202828    -0.05300
C997        C  0.32940901  0.55782767  0.35431097    -0.32200
C998        C  0.32672778  0.57988534  0.37213196     0.36800
H999        H  0.39004601  0.61360821  0.42157114     0.17200
O1000       O  0.39873599  0.57329224  0.39419801    -0.59700
H1001       H  0.31195245  0.54176275  0.33662968     0.17200
O1002       O  0.30260993  0.58135338  0.36554864    -0.59800
H1003       H  0.28783398  0.56633449  0.38251559     0.44200
H1004       H  0.41369920  0.58566728  0.37519489     0.44200
C1005       C  0.20001492  0.55235061  0.61585100    -0.04900
C1006       C  0.19745686  0.55937046  0.57691486    -0.32300
C1007       C  0.22147551  0.57900058  0.55586335     0.36900
C1008       C  0.24849443  0.59237466  0.57406541    -0.05300
C1009       C  0.25081459  0.58628713  0.61371834    -0.32200
C1010       C  0.22680190  0.56613239  0.63446184     0.36800
H1011       H  0.17692652  0.54869628  0.56227468     0.17200
O1012       O  0.21826569  0.58541070  0.51773709    -0.59700
H1013       H  0.27139718  0.59644185  0.62818156     0.17200
O1014       O  0.22981640  0.55925254  0.67238985    -0.59800
H1015       H  0.22617646  0.57210472  0.68947876     0.44200
H1016       H  0.21739636  0.56962735  0.50132525     0.44200
C1017       C  0.24762222  0.65399002  0.40338366    -0.04900
C1018       C  0.22235376  0.62729793  0.40644720    -0.32300
C1019       C  0.19676658  0.62304392  0.39042174     0.36900
C1020       C  0.19616938  0.64553154  0.37025665    -0.05300
C1021       C  0.22203127  0.67119379  0.36379332    -0.32200
C1022       C  0.24744420  0.67574857  0.38081205     0.36800
H1023       H  0.22195545  0.61018625  0.42362068     0.17200
O1024       O  0.17209183  0.59797738  0.39836091    -0.59700
H1025       H  0.22218302  0.68862595  0.34776044     0.17200
O1026       O  0.27184269  0.70168472  0.37569730    -0.59800
H1027       H  0.27072253  0.71490960  0.39525132     0.44200
H1028       H  0.17120038  0.58391824  0.37847478     0.44200
C1029       C  0.45645880  0.81360380  0.39894390    -0.04900
C1030       C  0.45650726  0.80328750  0.43693394    -0.32300
C1031       C  0.43470787  0.77651598  0.44904482     0.36900
C1032       C  0.41178212  0.75970928  0.42352669    -0.05300
C1033       C  0.41071096  0.77055742  0.38632484    -0.32200
C1034       C  0.43303018  0.79727954  0.37376640     0.36800
H1035       H  0.47398792  0.81583257  0.45711786     0.17200
O1036       O  0.43550062  0.76736779  0.48650266    -0.59700
H1037       H  0.39295835  0.75794702  0.36660193     0.17200
O1038       O  0.43258774  0.80634200  0.33615868    -0.59800
H1039       H  0.41928499  0.81387172  0.33716137     0.44200
H1040       H  0.44807894  0.75900503  0.48472323     0.44200
C1041       C  0.34670949  0.75407084  0.57586126    -0.04900
C1042       C  0.35895426  0.78071295  0.55665513    -0.32300
C1043       C  0.36432347  0.80565642  0.57710099     0.36900
C1044       C  0.35740689  0.80428305  0.61734702    -0.05300
C1045       C  0.34618697  0.77798137  0.63703814    -0.32200
C1046       C  0.34106845  0.75300470  0.61670338     0.36800
H1047       H  0.36389995  0.78214266  0.52545190     0.17200
O1048       O  0.37495838  0.83105044  0.55703281    -0.59700
H1049       H  0.34008766  0.77656467  0.66777237     0.17200
O1050       O  0.32930848  0.72748886  0.63663358    -0.59800
H1051       H  0.30848739  0.71876963  0.63309678     0.44200
H1052       H  0.35805539  0.83152273  0.54707233     0.44200
C1053       C  0.38133723  0.99657027  0.20726254    -0.04900
C1054       C  0.38235302  0.96098843  0.20239599    -0.32300
C1055       C  0.41796348  0.96199963  0.19917395     0.36900
C1056       C  0.45304277  0.99827223  0.19975439    -0.05300
C1057       C  0.45265132  0.53348950  0.20890363    -0.32200
C1058       C  0.41713458  0.53287490  0.21191945     0.36800
H1059       H  0.36305150  0.94045411  0.19949787     0.17200
O1060       O  0.41833346  0.93675788  0.20011756    -0.59700
H1061       H  0.47223329  0.55326756  0.21511154     0.17200
O1062       O  0.41753783  0.55822538  0.21795474    -0.59800
H1063       H  0.40580962  0.55494125  0.24182588     0.44200
H1064       H  0.43687483  0.94130799  0.18873150     0.44200
C1065       C  0.99951133  0.90044720  0.17183979    -0.04900
C1066       C  0.01821289  0.92869799  0.15924766    -0.32300
C1067       C  0.01875450  0.95241476  0.17786587     0.36900
C1068       C  0.49952156  0.94794218  0.20987864    -0.05300
C1069       C  0.48028452  0.91990419  0.22221424    -0.32200
C1070       C  0.48044775  0.89604115  0.20572907     0.36800
H1071       H  0.03244060  0.93248187  0.13475637     0.17200
O1072       O  0.03804626  0.97957386  0.16549880    -0.59700
H1073       H  0.46526516  0.91640262  0.24550636     0.17200
O1074       O  0.46338806  0.86952772  0.22210982    -0.59800
H1075       H  0.44357794  0.86491466  0.21702926     0.44200
H1076       H  0.05394855  0.98682581  0.18476507     0.44200
C1077       C  0.04903119  0.54714455  0.20543367    -0.04900
C1078       C  0.07662724  0.55514829  0.21767386    -0.32300
C1079       C  0.10022430  0.57726434  0.19883497     0.36900
C1080       C  0.09639905  0.59118749  0.16616287    -0.05300
C1081       C  0.06866968  0.58204004  0.15274692    -0.32200
C1082       C  0.04509902  0.56038178  0.17232577     0.36800
H1083       H  0.07993551  0.54470025  0.24266097     0.17200
O1084       O  0.12676582  0.58631724  0.21422687    -0.59700
H1085       H  0.06518204  0.59192958  0.12724513     0.17200
O1086       O  0.01832353  0.55297542  0.15964867    -0.59800
H1087       H  0.01414718  0.56707077  0.17250180     0.44200
H1088       H  0.13047320  0.57028294  0.20934106     0.44200
C1089       C  0.05838781  0.69819807  0.86626296    -0.04900
C1090       C  0.07089857  0.69549289  0.90089725    -0.32300
C1091       C  0.09205550  0.71982935  0.92042980     0.36900
C1092       C  0.10126619  0.74741494  0.90508274    -0.05300
C1093       C  0.09081899  0.74993463  0.86831864    -0.32200
C1094       C  0.06908324  0.72548811  0.84918501     0.36800
H1095       H  0.06267079  0.67463526  0.91451199     0.17200
O1096       O  0.10246191  0.71653710  0.95571324    -0.59700
H1097       H  0.09796690  0.77097229  0.85591169     0.17200
O1098       O  0.05757912  0.72850298  0.81475850    -0.59800
H1099       H  0.04387551  0.73457360  0.82301455     0.44200
H1100       H  0.12005531  0.71628307  0.94886263     0.44200
C1101       C  0.15106691  0.73952854  0.06837131    -0.04900
C1102       C  0.15454103  0.72065176  0.04347270    -0.32300
C1103       C  0.14975221  0.69426976  0.05743509     0.36900
C1104       C  0.14192907  0.68673070  0.09714548    -0.05300
C1105       C  0.13701696  0.70497300  0.12156724    -0.32200
C1106       C  0.14141381  0.73128618  0.10726129     0.36800
H1107       H  0.16098167  0.72639226  0.01304429     0.17200
O1108       O  0.15258917  0.67578728  0.03211976    -0.59700
H1109       H  0.13105701  0.69942605  0.15215247     0.17200
O1110       O  0.13726750  0.74922791  0.13183436    -0.59800
H1111       H  0.15595233  0.76173815  0.14464537     0.44200
H1112       H  0.17323001  0.68482892  0.02684527     0.44200
C1113       C  0.16088214  0.91033257  0.92239857    -0.04900
C1114       C  0.15550737  0.90844232  0.88142248    -0.32300
C1115       C  0.15076603  0.92874613  0.86246440     0.36900
C1116       C  0.15145431  0.95133817  0.88440910    -0.05300
C1117       C  0.15581621  0.95279499  0.92527583    -0.32200
C1118       C  0.16041976  0.93259504  0.94436693     0.36800
H1119       H  0.15544248  0.89149331  0.86385103     0.17200
O1120       O  0.14706494  0.92726329  0.82226775    -0.59700
H1121       H  0.15642493  0.97023676  0.94234891     0.17200
O1122       O  0.16418859  0.93481629  0.98458249    -0.59800
H1123       H  0.18455548  0.94916991  0.98877630     0.44200
H1124       H  0.12619053  0.91717439  0.81814399     0.44200
C1125       C  0.09017675  0.84238171  0.07018384    -0.04900
C1126       C  0.09411550  0.85581114  0.10731929    -0.32300
C1127       C  0.07292972  0.86043282  0.12355062     0.36900
C1128       C  0.04768875  0.85200236  0.10216176    -0.05300
C1129       C  0.04477908  0.84017255  0.06403042    -0.32200
C1130       C  0.06548912  0.83497926  0.04833723     0.36800
H1131       H  0.11329522  0.86200424  0.12418124     0.17200
O1132       O  0.07634776  0.87150455  0.16108040    -0.59700
H1133       H  0.02586695  0.83418282  0.04661309     0.17200
O1134       O  0.06187116  0.82357542  0.01094939    -0.59800
H1135       H  0.05012427  0.80247340  0.01431970     0.44200
H1136       H  0.08899244  0.89254792  0.15821891     0.44200
C1137       C  0.28328756  0.93881012  0.15436054    -0.04900
C1138       C  0.28993085  0.92079134  0.13221047    -0.32300
C1139       C  0.26939999  0.89898166  0.10802357     0.36900
C1140       C  0.24189949  0.89527131  0.10545855    -0.05300
C1141       C  0.23462064  0.91150748  0.13043798    -0.32200
C1142       C  0.25504135  0.93306169  0.15492218     0.36800
H1143       H  0.31163715  0.92513190  0.13109872     0.17200
O1144       O  0.27727568  0.88352204  0.08405427    -0.59700
H1145       H  0.21331526  0.90831630  0.12975471     0.17200
O1146       O  0.24760616  0.94924202  0.17821914    -0.59800
H1147       H  0.24370092  0.96107854  0.15975361     0.44200
H1148       H  0.27514019  0.86740649  0.10054126     0.44200
C1149       C  0.25739659  0.85042263  0.91673006    -0.04900
C1150       C  0.28294219  0.86277151  0.93835139    -0.32300
C1151       C  0.30819236  0.86774190  0.92070758     0.36900
C1152       C  0.30825590  0.86012788  0.88091001    -0.05300
C1153       C  0.28311599  0.84890278  0.85864627    -0.32200
C1154       C  0.25780388  0.84435739  0.87616837     0.36800
H1155       H  0.28318870  0.86781500  0.96946316     0.17200
O1156       O  0.33223502  0.87775535  0.94348429    -0.61500
H1157       H  0.28277781  0.84218247  0.82829364     0.17200
O1158       O  0.23319833  0.83165529  0.85432509    -0.59800
H1159       H  0.23250114  0.84777173  0.84141749     0.44200
H1160       H  0.34268789  0.89887964  0.93986847     0.44200
C1161       C  0.25172249  0.59417130  0.89856496    -0.04900
C1162       C  0.22512622  0.58796583  0.91318136    -0.32300
C1163       C  0.20005622  0.56756590  0.89448314     0.36900
C1164       C  0.20132493  0.55252528  0.86107987    -0.05300
C1165       C  0.22795668  0.55987246  0.84508813    -0.32200
C1166       C  0.25313540  0.58079863  0.86346452     0.36800
H1167       H  0.22378812  0.59816901  0.94020567     0.17200
O1168       O  0.17446578  0.56024973  0.91157151    -0.59700
H1169       H  0.22919708  0.54807644  0.81980429     0.17200
O1170       O  0.27886263  0.58649924  0.84855234    -0.59800
H1171       H  0.28328542  0.57286961  0.86196220     0.44200
H1172       H  0.16827910  0.57275624  0.89885985     0.44200
C1173       C  0.19510782  0.63598397  0.11206893    -0.04900
C1174       C  0.22150319  0.65959041  0.12273452    -0.32300
C1175       C  0.24639964  0.66328401  0.10577709     0.36900
C1176       C  0.24503944  0.64308063  0.07792416    -0.05300
C1177       C  0.21897947  0.61803220  0.07019698    -0.32200
C1178       C  0.19396226  0.61453194  0.08679669     0.36800
H1179       H  0.22258684  0.67610077  0.14243766     0.17200
O1180       O  0.27174279  0.68741550  0.11512375    -0.59700
H1181       H  0.21769375  0.60220185  0.04901250     0.17200
O1182       O  0.16841031  0.59133265  0.07565882    -0.59800
H1183       H  0.16221937  0.59777936  0.05226198     0.44200
H1184       H  0.28081503  0.68102288  0.13490508     0.44200
C1185       C  0.35629884  0.80446107  0.88500507    -0.04900
C1186       C  0.35574469  0.80165999  0.92606352    -0.32300
C1187       C  0.35044348  0.77599746  0.94316087     0.36900
C1188       C  0.34527456  0.75225739  0.91903502    -0.05300
C1189       C  0.34722643  0.75555407  0.87776760    -0.32200
C1190       C  0.35243440  0.78145548  0.86068135     0.36800
H1191       H  0.35854441  0.81926665  0.94498490     0.17200
O1192       O  0.35002894  0.77434592  0.98360904    -0.59700
H1193       H  0.34371000  0.73776389  0.85873914     0.17200
O1194       O  0.35271919  0.78377128  0.82035301    -0.59800
H1195       H  0.33253781  0.77575869  0.81256048     0.44200
H1196       H  0.36953694  0.77921753  0.99126160     0.44200
C1197       C  0.41032918  0.65673460  0.91521474    -0.04900
C1198       C  0.41948783  0.63914812  0.93251026    -0.32300
C1199       C  0.44029019  0.63512233  0.91444092     0.36900
C1200       C  0.45266916  0.64926599  0.87894751    -0.05300
C1201       C  0.44328289  0.66654323  0.86124293    -0.32200
C1202       C  0.42202505  0.67014532  0.87899741     0.36800
H1203       H  0.41063511  0.62866546  0.96037144     0.17200
O1204       O  0.44976496  0.61891142  0.93301103    -0.59700
H1205       H  0.45295961  0.67777090  0.83412088     0.17200
O1206       O  0.41369575  0.68768861  0.86161616    -0.59800
H1207       H  0.42626189  0.70704954  0.87320403     0.44200
H1208       H  0.43593691  0.59870956  0.92558336     0.44200
C1209       C  0.39973091  0.74706382  0.08728414    -0.04900
C1210       C  0.40104502  0.77349626  0.08096887    -0.32300
C1211       C  0.42279343  0.79887777  0.09790781     0.36900
C1212       C  0.44339231  0.79791004  0.12195895    -0.05300
C1213       C  0.44027194  0.77107686  0.13146139    -0.32200
C1214       C  0.41881525  0.74579155  0.11401368     0.36800
H1215       H  0.38637355  0.77481972  0.06065082     0.17200
O1216       O  0.42543533  0.82467687  0.08737316    -0.59700
H1217       H  0.45564023  0.76993882  0.15058450     0.17200
O1218       O  0.41685689  0.72001495  0.12287587    -0.59800
H1219       H  0.43166241  0.71925015  0.10670687     0.44200
H1220       H  0.41146375  0.82667464  0.10390183     0.44200
C1221       C  0.33601128  0.54498235  0.13389754    -0.04900
C1222       C  0.36055861  0.56335122  0.11236546    -0.32300
C1223       C  0.36116518  0.58452803  0.08783439     0.36900
C1224       C  0.33668094  0.58692645  0.08354932    -0.05300
C1225       C  0.31254242  0.56927860  0.10595916    -0.32200
C1226       C  0.31227978  0.54894298  0.13156945     0.36800
H1227       H  0.37895251  0.56061337  0.11328417     0.17200
O1228       O  0.38515769  0.60154342  0.06634323    -0.59700
H1229       H  0.29385211  0.57148365  0.10394310     0.17200
O1230       O  0.28845372  0.53267825  0.15376296    -0.59800
H1231       H  0.29248149  0.54263314  0.17972267     0.44200
H1232       H  0.39788889  0.61731002  0.08462981     0.44200
C1233       C  0.45587035  0.94925032  0.79009175    -0.04900
C1234       C  0.44098472  0.95475342  0.81936682    -0.32300
C1235       C  0.41699844  0.93210566  0.83734824     0.36900
C1236       C  0.40760685  0.90327367  0.82619152    -0.05300
C1237       C  0.42388704  0.89793678  0.79873574    -0.32200
C1238       C  0.44793745  0.92058364  0.78105603     0.36800
H1239       H  0.44723734  0.97673939  0.82712515     0.17200
O1240       O  0.40346320  0.93836704  0.86664435    -0.59700
H1241       H  0.41755113  0.87611819  0.78995141     0.17200
O1242       O  0.46360517  0.91464221  0.75481761    -0.59800
H1243       H  0.45071794  0.90439305  0.73228543     0.44200
H1244       H  0.39479543  0.94852366  0.85342253     0.44200
C1245       C  0.99574738  0.54503281  0.79556746    -0.04900
C1246       C  0.01599234  0.56143605  0.82438490    -0.32300
C1247       C  0.01685288  0.58569253  0.84124801     0.36900
C1248       C  0.99735378  0.59412889  0.82885941    -0.05300
C1249       C  0.47592322  0.57544767  0.80376763    -0.32200
C1250       C  0.47513058  0.55098856  0.78794513     0.36800
H1251       H  0.03200041  0.55631992  0.83254570     0.17200
O1252       O  0.03729854  0.60133276  0.86908345    -0.59700
H1253       H  0.45943983  0.58004052  0.79526623     0.17200
O1254       O  0.45306216  0.53312195  0.76344894    -0.59800
H1255       H  0.44079770  0.51593763  0.77950522     0.44200
H1256       H  0.02765777  0.59463729  0.89487262     0.44200
C1257       C  0.05300827  0.99935207  0.79134422    -0.04900
C1258       C  0.05559544  0.97485502  0.78646739    -0.32300
C1259       C  0.07958938  0.97433068  0.80033676     0.36900
C1260       C  0.09822463  0.49614871  0.82079001    -0.05300
C1261       C  0.09410803  0.51947970  0.82927101    -0.32200
C1262       C  0.07066631  0.52059670  0.81423123     0.36800
H1263       H  0.03955685  0.95654593  0.76998438     0.17200
O1264       O  0.08226131  0.95090320  0.79134463    -0.59700
H1265       H  0.10944020  0.53743810  0.84702227     0.17200
O1266       O  0.06928350  0.54511480  0.81951517    -0.59800
H1267       H  0.06804506  0.54712174  0.84851920     0.44200
H1268       H  0.09194718  0.95525956  0.76540528     0.44200
C1269       C  0.45069648  0.95430175  0.70175072    -0.04900
C1270       C  0.42374213  0.94560082  0.71779226    -0.32300
C1271       C  0.39950984  0.92085079  0.70416868     0.36900
C1272       C  0.40137986  0.90545599  0.67156405    -0.05300
C1273       C  0.42733885  0.91678995  0.65150019    -0.32200
C1274       C  0.45195367  0.94116365  0.66617664     0.36800
H1275       H  0.42166880  0.95686824  0.74304624     0.17200
O1276       O  0.37471852  0.91056479  0.72509266    -0.59700
H1277       H  0.42868042  0.90638009  0.62471337     0.17200
O1278       O  0.47680341  0.95213619  0.64537191    -0.59800
H1279       H  0.47864149  0.93549554  0.63666871     0.44200
H1280       H  0.36794834  0.92429079  0.72020094     0.44200
C1281       C  0.00078240  0.54956554  0.70678432    -0.04900
C1282       C  0.01952025  0.57827236  0.71776941    -0.32300
C1283       C  0.01774753  0.60087538  0.70043105     0.36900
C1284       C  0.99743856  0.59514214  0.67052998    -0.05300
C1285       C  0.48045179  0.56781612  0.65883375    -0.32200
C1286       C  0.48187270  0.54489858  0.67621189     0.36800
H1287       H  0.03503947  0.58316821  0.74098646     0.17200
O1288       O  0.03467315  0.62829166  0.71480826    -0.59700
H1289       H  0.46494334  0.56310493  0.63567998     0.17200
O1290       O  0.46304875  0.51728173  0.66429485    -0.59800
H1291       H  0.44691054  0.51033812  0.68294178     0.44200
H1292       H  0.05424600  0.63396786  0.70639218     0.44200
C1293       C  0.05278521  0.50458655  0.70471585    -0.04900
C1294       C  0.07987982  0.52835908  0.71184550    -0.32300
C1295       C  0.10431175  0.52891432  0.69753821     0.36900
C1296       C  0.10180619  0.50590018  0.67408212    -0.05300
C1297       C  0.07527911  0.97977921  0.66833813    -0.32200
C1298       C  0.05144638  0.97900174  0.68530177     0.36800
H1299       H  0.08220049  0.54571842  0.73087318     0.17200
O1300       O  0.13044317  0.55066718  0.70972931    -0.59700
H1301       H  0.07237838  0.96072451  0.65306278     0.17200
O1302       O  0.02606014  0.95367639  0.68524691    -0.59800
H1303       H  0.02867603  0.94073527  0.70325832     0.44200
H1304       H  0.13314932  0.56814973  0.69620183     0.44200
C1305       C  0.00466948  0.00061929  0.78775411     0.46000
H1306       H  0.00493412  0.00029977  0.82056324    -0.03000
C1307       C  0.50188681  0.50060797  0.70930606     0.46100
H1308       H  0.50160190  0.50123498  0.67657230    -0.03000
C1309       C  0.97681306  0.47245053  0.76756589    -0.16700
C1310       C  0.00309045  0.02620382  0.77046384    -0.16400
C1311       C  0.52953744  0.50106734  0.76681045    -0.16800
C1312       C  0.97598442  0.47363004  0.72673595    -0.16800
C1313       C  0.00339025  0.02676886  0.72975148    -0.16400
C1314       C  0.52866676  0.50145575  0.72635068    -0.16700
O1315       O  0.81405435  0.10330880  0.03979064    -0.77900
C1316       C  0.77128390  0.15232757  0.05670729     0.83100
O1317       O  0.79589859  0.13436354  0.91093860    -0.79000
O1318       O  0.82863108  0.22059384  0.97125393    -0.80500
O1319       O  0.88926873  0.20599403  0.04910174    -0.80300
O1320       O  0.85966529  0.13424098  0.05295590    -0.78900
Zn1321     Zn  0.80065981  0.12662270  0.01011463     1.55700
O1322       O  0.85755194  0.22055762  0.05311736    -0.80300
Cd1323     Cd  0.86778982  0.16798503  0.01659426     1.59700
Cd1324     Cd  0.83437275  0.16558685  0.93536305     1.59600
O1325       O  0.89198011  0.16562504  0.97147470    -0.80300
O1326       O  0.83191404  0.16297671  0.99432810    -1.90800
Cd1327     Cd  0.82577544  0.19376595  0.01540971     1.59900
O1328       O  0.86758580  0.16003588  0.91573712    -0.80300
O1329       O  0.78834984  0.17786558  0.04562664    -0.78900
C1330       C  0.77524303  0.11251287  0.92714184     0.83600
C1331       C  0.83740984  0.10976633  0.05698497     0.83200
O1332       O  0.77450153  0.13135903  0.04661394    -0.77900
C1333       C  0.88160440  0.22351023  0.06164908     0.84100
O1334       O  0.77581207  0.10661449  0.96340099    -0.78000
C1335       C  0.88860115  0.16122664  0.93426583     0.84200
C1336       C  0.83779283  0.22421212  0.93598075     0.84500
O1337       O  0.84201823  0.20579494  0.91790507    -0.80400
C1338       C  0.88060482  0.37791769  0.84414498     0.03700
C1339       C  0.85614766  0.38010440  0.85131782    -0.12500
C1340       C  0.83172490  0.35689451  0.86749890     0.01200
C1341       C  0.83103963  0.33106563  0.87453696    -0.11000
C1342       C  0.85488227  0.32851295  0.86758137     0.03700
C1343       C  0.87971029  0.35188538  0.85290802    -0.10400
H1344       H  0.85607812  0.39976319  0.84514270     0.09300
H1345       H  0.81243437  0.31342464  0.88809981     0.06800
H1346       H  0.89849221  0.34997695  0.84954394     0.06700
O1347       O  0.63831771  0.36177666  0.05366226    -0.77900
C1348       C  0.72237439  0.38149813  0.07524272     0.83100
O1349       O  0.66438206  0.36903032  0.92209819    -0.79000
O1350       O  0.72912430  0.33709482  0.97729259    -0.80500
O1351       O  0.63748859  0.27585189  0.05553884    -0.80300
O1352       O  0.60638346  0.31614829  0.03976651    -0.78900
Zn1353     Zn  0.67257142  0.36955138  0.02182470     1.55700
O1354       O  0.68185830  0.28685856  0.04105661    -0.80300
Cd1355     Cd  0.63219102  0.30180498  0.01590418     1.59700
Cd1356     Cd  0.67140501  0.33660733  0.94104540     1.59600
O1357       O  0.61346966  0.27513076  0.96756283    -0.80300
O1358       O  0.66909918  0.33480927  0.99998706    -1.90800
Cd1359     Cd  0.69954832  0.32876223  0.02094638     1.59900
O1360       O  0.64095945  0.29781908  0.91584682    -0.80300
O1361       O  0.72140048  0.35798412  0.06601982    -0.78900
C1362       C  0.66666313  0.39081010  0.94074964     0.83600
C1363       C  0.61312728  0.34052483  0.05509073     0.83200
O1364       O  0.70622634  0.38924226  0.05874504    -0.77900
C1365       C  0.65753396  0.27014997  0.05610340     0.84100
O1366       O  0.67252956  0.39453839  0.97760936    -0.78000
C1367       C  0.61969246  0.27602332  0.93108541     0.84200
C1368       C  0.73131126  0.34410961  0.94099061     0.84500
O1369       O  0.71143739  0.34536608  0.92277484    -0.80400
C1370       C  0.62172770  0.11743374  0.14821906     0.03700
C1371       C  0.62011363  0.14158202  0.13562866    -0.12500
C1372       C  0.64345798  0.16453359  0.11697874     0.01200
C1373       C  0.66867914  0.16395773  0.11300957    -0.11000
C1374       C  0.67042806  0.14007020  0.12448075     0.03700
C1375       C  0.64683560  0.11664884  0.14141144    -0.10400
H1376       H  0.60079703  0.14239680  0.13977823     0.09300
H1377       H  0.68688596  0.18191991  0.09930190     0.06800
H1378       H  0.64803051  0.09774180  0.14876487     0.06700
C1379       C  0.62466699  0.99606902  0.83358256     0.03700
C1380       C  0.64930221  0.02310791  0.83947552    -0.12500
C1381       C  0.67433343  0.02489059  0.85366942     0.01200
C1382       C  0.67487650  0.99975825  0.86169285    -0.11000
C1383       C  0.65297610  0.47623697  0.85740685     0.03700
C1384       C  0.62793263  0.47478616  0.84381458    -0.10400
H1385       H  0.64889389  0.04270274  0.83388207     0.09300
H1386       H  0.69380599  0.00120633  0.87461554     0.06800
H1387       H  0.60807510  0.45476687  0.84683109     0.06700
C1388       C  0.49800789  0.37398951  0.15718985     0.03700
C1389       C  0.52344620  0.37549788  0.14415792    -0.12500
C1390       C  0.52271878  0.35151731  0.12589485     0.01200
C1391       C  0.49678148  0.32585801  0.12237656    -0.11000
C1392       C  0.97235602  0.32712632  0.12697996     0.03700
C1393       C  0.97310515  0.35133773  0.14372138    -0.10400
H1394       H  0.54356510  0.39527738  0.14749933     0.09300
H1395       H  0.49619096  0.30729433  0.10857812     0.06800
H1396       H  0.95324416  0.35030111  0.15083202     0.06700
C1397       C  0.50387987  0.12481423  0.83889821     0.03700
C1398       C  0.97656606  0.12404003  0.85007651    -0.12500
C1399       C  0.97790299  0.14986250  0.86119186     0.01200
C1400       C  0.50653825  0.17614858  0.86425912    -0.11000
C1401       C  0.53158116  0.17633564  0.85451759     0.03700
C1402       C  0.53015711  0.15091315  0.84080742    -0.10400
H1403       H  0.95620515  0.10430023  0.85033342     0.09300
H1404       H  0.50762275  0.19540742  0.87638044     0.06800
H1405       H  0.54967858  0.15166306  0.83233699     0.06700
C1406       C  0.85562419  0.49939547  0.19681524     0.03700
C1407       C  0.82998223  0.47302710  0.19260130    -0.12500
C1408       C  0.80716529  0.47131259  0.17098468     0.01200
C1409       C  0.80942137  0.49640708  0.15574849    -0.11000
C1410       C  0.83517356  0.02075929  0.15333750     0.03700
C1411       C  0.85779321  0.02232321  0.17540147    -0.10400
H1412       H  0.82817005  0.45338643  0.20358306     0.09300
H1413       H  0.79280064  0.49482694  0.13645026     0.06800
H1414       H  0.87711492  0.04276232  0.17755851     0.06700
O1415       O  0.86631185  0.14462327  0.42632976    -0.77900
C1416       C  0.89027591  0.23141603  0.43507092     0.83100
O1417       O  0.86280259  0.15544016  0.56765851    -0.79000
O1418       O  0.83405090  0.22559902  0.51313872    -0.80500
O1419       O  0.77695164  0.13645514  0.43039770    -0.80300
O1420       O  0.82079859  0.11062695  0.43218547    -0.78900
Zn1421     Zn  0.87111274  0.17288386  0.46962836     1.55700
O1422       O  0.79262277  0.18349021  0.43342744    -0.80300
Cd1423     Cd  0.80423569  0.13060287  0.46581212     1.59700
Cd1424     Cd  0.83371858  0.16642435  0.54539874     1.59600
O1425       O  0.77865633  0.10562140  0.51110260    -0.80300
O1426       O  0.83515798  0.16735209  0.48653412    -1.90800
Cd1427     Cd  0.83041835  0.19907424  0.46593179     1.59900
O1428       O  0.79340282  0.13522793  0.56322941    -0.80300
O1429       O  0.86480068  0.22616873  0.43158998    -0.78900
C1430       C  0.88338520  0.15529782  0.54978597     0.83600
C1431       C  0.84541045  0.11989969  0.41741798     0.83200
O1432       O  0.89624744  0.21392829  0.45187809    -0.77900
C1433       C  0.77449143  0.15806521  0.42169216     0.84100
O1434       O  0.88896223  0.16297018  0.51388536    -0.78000
C1435       C  0.77521347  0.11176717  0.54638736     0.84200
C1436       C  0.84101327  0.22689725  0.54950285     0.84500
O1437       O  0.84276020  0.20660294  0.56615389    -0.80400
C1438       C  0.87721544  0.37691974  0.65572786     0.03700
C1439       C  0.87994102  0.35310702  0.64421810    -0.12500
C1440       C  0.85596063  0.32748494  0.63119353     0.01200
C1441       C  0.82941116  0.32560630  0.63007221    -0.11000
C1442       C  0.82675619  0.34943195  0.63958572     0.03700
C1443       C  0.85061107  0.37499984  0.65208344    -0.10400
H1444       H  0.90050284  0.35451893  0.64503877     0.09300
H1445       H  0.81120532  0.30630771  0.61833736     0.06800
H1446       H  0.84854494  0.39373486  0.65754877     0.06700
O1447       O  0.61461604  0.32510378  0.45621820    -0.77900
C1448       C  0.65788956  0.27344660  0.44787332     0.83100
O1449       O  0.63196086  0.29055650  0.58447789    -0.79000
O1450       O  0.72505068  0.33395528  0.53547214    -0.80500
O1451       O  0.71682607  0.39709826  0.47354528    -0.80300
O1452       O  0.64724628  0.37172470  0.45742208    -0.78900
Zn1453     Zn  0.63263375  0.30618614  0.48658681     1.55700
O1454       O  0.72404160  0.36220542  0.45115810    -0.80300
Cd1455     Cd  0.67640940  0.37356648  0.49757101     1.59700
Cd1456     Cd  0.66589755  0.33037122  0.56997546     1.59600
O1457       O  0.67004669  0.39278259  0.54633243    -0.80300
O1458       O  0.66760047  0.33441977  0.51107437    -1.90800
Cd1459     Cd  0.69858267  0.32966734  0.48977123     1.59900
O1460       O  0.65959474  0.36189512  0.59595422    -0.80300
O1461       O  0.68224451  0.28984081  0.46328574    -0.78900
C1462       C  0.60970980  0.27427450  0.56426595     0.83600
C1463       C  0.62319633  0.35105263  0.44643947     0.83200
O1464       O  0.63779075  0.27899787  0.45045170    -0.77900
C1465       C  0.73103351  0.38863379  0.45308079     0.84100
O1466       O  0.60690130  0.28006292  0.52863781    -0.78000
C1467       C  0.66228458  0.38502669  0.58180493     0.84200
C1468       C  0.72473178  0.33632196  0.57289640     0.84500
O1469       O  0.70356527  0.33467099  0.59140699    -0.80400
C1470       C  0.62983535  0.00582724  0.66131845     0.03700
C1471       C  0.62727768  0.47707558  0.66233268    -0.12500
C1472       C  0.65051886  0.47502283  0.64878659     0.01200
C1473       C  0.67656591  0.00201558  0.63406975    -0.11000
C1474       C  0.67697964  0.02810643  0.63183175     0.03700
C1475       C  0.65376394  0.03015401  0.64568728    -0.10400
H1476       H  0.60897035  0.45791799  0.67350099     0.09300
H1477       H  0.69400043  0.00033406  0.62144367     0.06800
H1478       H  0.65378374  0.05017186  0.64239024     0.06700
C1479       C  0.49636196  0.11971639  0.65272602     0.03700
C1480       C  0.96935121  0.11497181  0.64189724    -0.12500
C1481       C  0.96711902  0.13694999  0.62313340     0.01200
C1482       C  0.49159045  0.16466892  0.61916353    -0.11000
C1483       C  0.51836732  0.16776442  0.62442508     0.03700
C1484       C  0.52080899  0.14537185  0.64110608    -0.10400
H1485       H  0.95016625  0.09527263  0.64953168     0.09300
H1486       H  0.48971909  0.18182583  0.60547297     0.06800
H1487       H  0.54166094  0.14760990  0.64346048     0.06700
C1488       C  0.00825458  0.38644980  0.35151402     0.03700
C1489       C  0.98285562  0.36080281  0.36085733    -0.12500
C1490       C  0.98377629  0.33736354  0.37729368     0.01200
C1491       C  0.00995942  0.33883468  0.38183262    -0.11000
C1492       C  0.53400606  0.36426188  0.38111364     0.03700
C1493       C  0.53352737  0.38857550  0.36755609    -0.10400
H1494       H  0.96242412  0.35914316  0.35620773     0.09300
H1495       H  0.01065397  0.32068102  0.39427293     0.06800
H1496       H  0.55353562  0.40816990  0.36321299     0.06700
C1497       C  0.61972619  0.12211927  0.34489608     0.03700
C1498       C  0.64547507  0.12158401  0.34536995    -0.12500
C1499       C  0.67070884  0.14532165  0.35990546     0.01200
C1500       C  0.67004922  0.16966291  0.37302414    -0.11000
C1501       C  0.64467481  0.17019785  0.37476177     0.03700
C1502       C  0.61962787  0.14666511  0.35983862    -0.10400
H1503       H  0.64601617  0.10298787  0.33408178     0.09300
H1504       H  0.68937918  0.18800888  0.38417291     0.06800
H1505       H  0.59992711  0.14704165  0.36113498     0.06700
C1506       C  0.87223072  0.99726458  0.32961404     0.03700
C1507       C  0.87294301  0.02374647  0.33118344    -0.12500
C1508       C  0.85177075  0.02629456  0.35111287     0.01200
C1509       C  0.82962617  0.00211543  0.36909558    -0.11000
C1510       C  0.82781794  0.47725133  0.36900420     0.03700
C1511       C  0.84936456  0.47435461  0.35013202    -0.10400
H1512       H  0.89035145  0.04250754  0.31759018     0.09300
H1513       H  0.81327709  0.00416998  0.38454388     0.06800
H1514       H  0.84897979  0.45403489  0.35085070     0.06700
C1515       C  0.00018569  0.49883598  0.20853164     0.46000
H1516       H  0.00161473  0.49805339  0.17587349    -0.03000
C1517       C  0.99464526  0.50072114  0.28510689     0.46100
H1518       H  0.99318193  0.50137640  0.31767178    -0.03000
C1519       C  0.52522777  0.02516921  0.22731248    -0.16700
C1520       C  0.97369138  0.49850324  0.22244132    -0.16400
C1521       C  0.99933607  0.47351441  0.22981862    -0.16800
C1522       C  0.52238665  0.02710885  0.26756560    -0.16800
C1523       C  0.96950262  0.49949243  0.26078781    -0.16400
C1524       C  0.99734388  0.47482545  0.27037691    -0.16700
C1525       C  0.89641103  0.99639783  0.31066430    -0.04900
C1526       C  0.89418196  0.98628429  0.27177527    -0.32300
C1527       C  0.91842534  0.99540694  0.24309761     0.36900
C1528       C  0.94283528  0.50057276  0.27365247    -0.05300
C1529       C  0.94389448  0.50766529  0.31406946    -0.32200
C1530       C  0.92145767  0.50739846  0.33299480     0.36800
H1531       H  0.87190335  0.97323384  0.26399361     0.17200
O1532       O  0.91789454  0.99946966  0.17924040    -0.59700
H1533       H  0.96280058  0.51438866  0.33157242     0.17200
O1534       O  0.92410628  0.51609043  0.37176856    -0.59800
H1535       H  0.91766712  0.49836662  0.38743078     0.44200
H1536       H  0.92370042  0.01318456  0.15592475     0.44200
C1537       C  0.54401999  0.05125120  0.29243974    -0.04900
C1538       C  0.55967658  0.04583378  0.32051231    -0.32300
C1539       C  0.58408154  0.06858245  0.33834674     0.36900
C1540       C  0.59296932  0.09737356  0.32855408    -0.05300
C1541       C  0.57605375  0.10266157  0.30241673    -0.32200
C1542       C  0.55183996  0.07994231  0.28440042     0.36800
H1543       H  0.55377819  0.02385968  0.32718578     0.17200
O1544       O  0.59873145  0.06249935  0.36594852    -0.59700
H1545       H  0.58213209  0.12453708  0.29484357     0.17200
O1546       O  0.53591833  0.08583761  0.25874246    -0.59800
H1547       H  0.54878459  0.09663497  0.23666120     0.44200
H1548       H  0.60813707  0.05370190  0.35093890     0.44200
C1549       C  0.00738176  0.41161421  0.33420861    -0.04900
C1550       C  0.98527051  0.41703521  0.34424782    -0.32300
C1551       C  0.98244133  0.43864553  0.32539459     0.36900
C1552       C  0.00234169  0.45589422  0.29693073    -0.05300
C1553       C  0.52494604  0.45162538  0.29406813    -0.32200
C1554       C  0.52706996  0.42971101  0.31268763     0.36800
H1555       H  0.96957573  0.40403810  0.36603615     0.17200
O1556       O  0.95897486  0.44113177  0.33262855    -0.59700
H1557       H  0.54033475  0.46403262  0.27153347     0.17200
O1558       O  0.54726435  0.42354358  0.29942365    -0.59800
H1559       H  0.56581792  0.44025665  0.30737930     0.44200
H1560       H  0.96408030  0.45403370  0.35600460     0.44200
C1561       C  0.58684843  0.24704873  0.58108789    -0.04900
C1562       C  0.56531357  0.22739795  0.55558307    -0.32300
C1563       C  0.54383765  0.20105502  0.56918954     0.36900
C1564       C  0.54320893  0.19380927  0.60911955    -0.05300
C1565       C  0.56485389  0.21286489  0.63474631    -0.32200
C1566       C  0.58654719  0.23947499  0.62109470     0.36800
H1567       H  0.56507003  0.23226082  0.52464163     0.17200
O1568       O  0.52317270  0.18263257  0.54326311    -0.59700
H1569       H  0.56438449  0.20751176  0.66563511     0.17200
O1570       O  0.60707247  0.25784251  0.64716430    -0.59800
H1571       H  0.59936159  0.26937503  0.65918724     0.44200
H1572       H  0.52948676  0.16918148  0.53411793     0.44200
C1573       C  0.65252736  0.24637712  0.42903381    -0.04900
C1574       C  0.66264414  0.23032131  0.44819360    -0.32300
C1575       C  0.65868629  0.20471795  0.43174998     0.36900
C1576       C  0.64495344  0.19497866  0.39481903    -0.05300
C1577       C  0.63371105  0.21040436  0.37625625    -0.32200
C1578       C  0.63712634  0.23585036  0.39344044     0.36800
H1579       H  0.67352070  0.23754716  0.47638858     0.17200
O1580       O  0.66768741  0.18886347  0.45244894    -0.59700
H1581       H  0.62308221  0.20321882  0.34791884     0.17200
O1582       O  0.62676219  0.25103592  0.37422371    -0.59800
H1583       H  0.60667892  0.24227648  0.38271130     0.44200
H1584       H  0.68872597  0.20063661  0.45323463     0.44200
C1585       C  0.65498376  0.40315760  0.60600984    -0.04900
C1586       C  0.67177815  0.41853140  0.63861891    -0.32300
C1587       C  0.66869700  0.44061066  0.65594234     0.36900
C1588       C  0.64827117  0.44691031  0.64103354    -0.05300
C1589       C  0.62968745  0.42951923  0.61102509    -0.32200
C1590       C  0.63303451  0.40785908  0.59340366     0.36800
H1591       H  0.68854555  0.41484118  0.64878622     0.17200
O1592       O  0.68647690  0.45678639  0.68619309    -0.59700
H1593       H  0.61409104  0.43431147  0.59897034     0.17200
O1594       O  0.61595995  0.39262731  0.56207326    -0.59800
H1595       H  0.60026958  0.37485770  0.57370688     0.44200
H1596       H  0.70471748  0.47037145  0.67343017     0.44200
C1597       C  0.75663733  0.41026381  0.43192121    -0.04900
C1598       C  0.77308703  0.43763464  0.44889226    -0.32300
C1599       C  0.79701153  0.45904800  0.42958077     0.36900
C1600       C  0.80467771  0.45353971  0.39197728    -0.05300
C1601       C  0.78883944  0.42579165  0.37559045    -0.32200
C1602       C  0.76513552  0.40414174  0.39545053     0.36800
H1603       H  0.76751328  0.44245776  0.47754302     0.17200
O1604       O  0.81336581  0.48508723  0.44826540    -0.59700
H1605       H  0.79431262  0.42111741  0.34679178     0.17200
O1606       O  0.74956067  0.37758869  0.37794057    -0.59800
H1607       H  0.75949234  0.36702851  0.38509668     0.44200
H1608       H  0.80122268  0.49394675  0.45027059     0.44200
C1609       C  0.60411046  0.35751946  0.42349068    -0.04900
C1610       C  0.58531332  0.33741165  0.39586417    -0.32300
C1611       C  0.56407297  0.34103518  0.37843322     0.36900
C1612       C  0.56081578  0.36456085  0.38958104    -0.05300
C1613       C  0.58099782  0.38582918  0.41472484    -0.32200
C1614       C  0.60256340  0.38246308  0.43169264     0.36800
H1615       H  0.58653739  0.31839130  0.38870362     0.17200
O1616       O  0.54549558  0.32056112  0.35232512    -0.59700
H1617       H  0.57877942  0.40398265  0.42368975     0.17200
O1618       O  0.62062789  0.40259672  0.45856171    -0.59800
H1619       H  0.61023307  0.39715105  0.48398481     0.44200
H1620       H  0.55389194  0.32751435  0.32587515     0.44200
C1621       C  0.80053161  0.34914980  0.62848159    -0.04900
C1622       C  0.80192115  0.36688677  0.59754607    -0.32300
C1623       C  0.77715630  0.36334844  0.58025073     0.36900
C1624       C  0.75048579  0.34229472  0.59455502    -0.05300
C1625       C  0.74899827  0.32589103  0.62744253    -0.32200
C1626       C  0.77395977  0.32903338  0.64423107     0.36800
H1627       H  0.82227624  0.38240517  0.58519919     0.17200
O1628       O  0.77915907  0.38045024  0.54910425    -0.59700
H1629       H  0.72855557  0.30968607  0.63870298     0.17200
O1630       O  0.77219478  0.31160484  0.67475242    -0.59800
H1631       H  0.77511399  0.32321123  0.69905849     0.44200
H1632       H  0.78322648  0.37190174  0.52569396     0.44200
C1633       C  0.90120206  0.14558991  0.57028189    -0.04900
C1634       C  0.90406740  0.14730557  0.61171208    -0.32300
C1635       C  0.92356122  0.14135525  0.63051584     0.36900
C1636       C  0.94008421  0.13319847  0.60789980    -0.05300
C1637       C  0.93540982  0.12905301  0.56713103    -0.32200
C1638       C  0.91639808  0.13531066  0.54823301     0.36800
H1639       H  0.89239036  0.15478113  0.62931086     0.17200
O1640       O  0.92796384  0.14580465  0.67044918    -0.59700
H1641       H  0.94820745  0.12300486  0.54939669     0.17200
O1642       O  0.91319562  0.13168547  0.50800435    -0.59800
H1643       H  0.92993202  0.14877420  0.49671574     0.44200
H1644       H  0.91565970  0.12668415  0.68236628     0.44200
C1645       C  0.84993025  0.10044932  0.39138442    -0.04900
C1646       C  0.87517031  0.09952480  0.39480333    -0.32300
C1647       C  0.87713362  0.07659516  0.37842127     0.36900
C1648       C  0.85375505  0.05445006  0.35788815    -0.05300
C1649       C  0.82974506  0.05708013  0.35091226    -0.32200
C1650       C  0.82763328  0.07975965  0.36769451     0.36800
H1651       H  0.89248138  0.11519496  0.41307519     0.17200
O1652       O  0.90056418  0.07427556  0.38671121    -0.59700
H1653       H  0.81174498  0.04037920  0.33473658     0.17200
O1654       O  0.80332124  0.08102219  0.36192235    -0.59800
H1655       H  0.78897978  0.06636760  0.37974161     0.44200
H1656       H  0.91485279  0.08624555  0.36669135     0.44200
C1657       C  0.70044958  0.05170615  0.61018926    -0.04900
C1658       C  0.70174780  0.04897033  0.56920598    -0.32300
C1659       C  0.72573140  0.06842006  0.54806851     0.36900
C1660       C  0.74916048  0.09121123  0.56803604    -0.05300
C1661       C  0.74733172  0.09433357  0.60912446    -0.32200
C1662       C  0.72318542  0.07473521  0.63015822     0.36800
H1663       H  0.68429597  0.03115646  0.55364730     0.17200
O1664       O  0.72577806  0.06505909  0.50784578    -0.59700
H1665       H  0.76489615  0.11162001  0.62519157     0.17200
O1666       O  0.72264001  0.07734648  0.67042792    -0.59800
H1667       H  0.71236707  0.08795710  0.67512573     0.44200
H1668       H  0.73120956  0.05018073  0.50362154     0.44200
C1669       C  0.74890983  0.15281482  0.39917374    -0.04900
C1670       C  0.72313215  0.12702261  0.40503014    -0.32300
C1671       C  0.69757355  0.12297875  0.38915004     0.36900
C1672       C  0.69750295  0.14475376  0.36640254    -0.05300
C1673       C  0.72372147  0.16929142  0.35733913    -0.32200
C1674       C  0.74918949  0.17359646  0.37393669     0.36800
H1675       H  0.72242651  0.11065403  0.42423104     0.17200
O1676       O  0.67255436  0.09909217  0.39963770    -0.59700
H1677       H  0.72421617  0.18612362  0.33938675     0.17200
O1678       O  0.77415138  0.19828865  0.36563571    -0.59800
H1679       H  0.77446153  0.21324712  0.38328043     0.44200
H1680       H  0.67038947  0.08372010  0.38117129     0.44200
C1681       C  0.95816106  0.31163185  0.39255898    -0.04900
C1682       C  0.95942435  0.30183921  0.43049010    -0.32300
C1683       C  0.93756616  0.27565582  0.44431204     0.36900
C1684       C  0.91350711  0.25897676  0.42053835    -0.05300
C1685       C  0.91141463  0.26932497  0.38345599    -0.32200
C1686       C  0.93366889  0.29541644  0.36923413     0.36800
H1687       H  0.97781129  0.31434809  0.44927071     0.17200
O1688       O  0.93946808  0.26701270  0.48166784    -0.59700
H1689       H  0.89285664  0.25674759  0.36502656     0.17200
O1690       O  0.93205831  0.30391473  0.33170644    -0.59800
H1691       H  0.91913768  0.31186634  0.33365705     0.44200
H1692       H  0.95129491  0.25785573  0.47891317     0.44200
C1693       C  0.84794622  0.25327510  0.57237887    -0.04900
C1694       C  0.85873068  0.27949623  0.55235549    -0.32300
C1695       C  0.86382132  0.30451852  0.57230274     0.36900
C1696       C  0.85818213  0.30371164  0.61293444    -0.05300
C1697       C  0.84852715  0.27791348  0.63345259    -0.32200
C1698       C  0.84365570  0.25283143  0.61356614     0.36800
H1699       H  0.86268923  0.28051516  0.52086923     0.17200
O1700       O  0.87301478  0.32941490  0.55147719    -0.59700
H1701       H  0.84348366  0.27692321  0.66457264     0.17200
O1702       O  0.83347568  0.22780308  0.63435759    -0.59800
H1703       H  0.81249339  0.21834676  0.63232193     0.44200
H1704       H  0.85549129  0.32854913  0.54135689     0.44200
C1705       C  0.88193281  0.49932102  0.20824089    -0.04900
C1706       C  0.88237999  0.46358570  0.20146731    -0.32300
C1707       C  0.91769099  0.46402674  0.19827468     0.36900
C1708       C  0.95305589  0.49990052  0.20086527    -0.05300
C1709       C  0.95315200  0.03403435  0.20747719    -0.32200
C1710       C  0.91756062  0.03324218  0.21128406     0.36800
H1711       H  0.86291584  0.44332960  0.19742368     0.17200
O1712       O  0.91762335  0.43855238  0.19744239    -0.59700
H1713       H  0.97269043  0.05373785  0.21414604     0.17200
O1714       O  0.91784148  0.05841059  0.21859282    -0.59800
H1715       H  0.90511361  0.05422899  0.24154982     0.44200
H1716       H  0.93588440  0.44306060  0.18509780     0.44200
C1717       C  0.49821347  0.39923146  0.17642935    -0.04900
C1718       C  0.51636880  0.42725601  0.16257274    -0.32300
C1719       C  0.51696273  0.45119305  0.18046840     0.36900
C1720       C  0.99911165  0.44910778  0.20813888    -0.05300
C1721       C  0.98002834  0.42088073  0.21978457    -0.32200
C1722       C  0.98048615  0.39744573  0.20250433     0.36800
H1723       H  0.53027448  0.43071537  0.13778201     0.17200
O1724       O  0.53593413  0.47814006  0.16705178    -0.59700
H1725       H  0.96499973  0.41691137  0.24325890     0.17200
O1726       O  0.96363005  0.37066500  0.21825916    -0.59800
H1727       H  0.94376001  0.36587390  0.21322281     0.44200
H1728       H  0.55213838  0.48582920  0.18585041     0.44200
C1729       C  0.54982955  0.04670795  0.20435591    -0.04900
C1730       C  0.57744743  0.05553331  0.21747706    -0.32300
C1731       C  0.60094298  0.07867924  0.19996341     0.36900
C1732       C  0.59712813  0.09265075  0.16734606    -0.05300
C1733       C  0.56947537  0.08262994  0.15282610    -0.32200
C1734       C  0.54592083  0.06001171  0.17128994     0.36800
H1735       H  0.58079674  0.04514287  0.24249771     0.17200
O1736       O  0.62727354  0.08874638  0.21674768    -0.59700
H1737       H  0.56602940  0.09259244  0.12737581     0.17200
O1738       O  0.51914812  0.05183536  0.15773073    -0.59800
H1739       H  0.51401177  0.06515032  0.17081640     0.44200
H1740       H  0.63203331  0.07339559  0.21232679     0.44200
C1741       C  0.55886111  0.20160796  0.86670088    -0.04900
C1742       C  0.57329724  0.19872264  0.89906086    -0.32300
C1743       C  0.59428752  0.22299988  0.91901585     0.36900
C1744       C  0.60145918  0.25068789  0.90627219    -0.05300
C1745       C  0.58891519  0.25365732  0.87178117    -0.32200
C1746       C  0.56730399  0.22927955  0.85237475     0.36800
H1747       H  0.56679949  0.17759807  0.91069659     0.17200
O1748       O  0.60666460  0.21945720  0.95217660    -0.59700
H1749       H  0.59444693  0.27485911  0.86149474     0.17200
O1750       O  0.55383951  0.23263178  0.82033296    -0.59800
H1751       H  0.54056362  0.23843472  0.83140595     0.44200
H1752       H  0.62426827  0.22018734  0.94272657     0.44200
C1753       C  0.65178866  0.24241252  0.07197258    -0.04900
C1754       C  0.65608939  0.22400174  0.04723613    -0.32300
C1755       C  0.65120878  0.19749288  0.06085627     0.36900
C1756       C  0.64241915  0.18927280  0.10014904    -0.05300
C1757       C  0.63671812  0.20705957  0.12438412    -0.32200
C1758       C  0.64122455  0.23352730  0.11037701     0.36800
H1759       H  0.66321528  0.23018819  0.01712911     0.17200
O1760       O  0.65492542  0.17954775  0.03558261    -0.59700
H1761       H  0.63005621  0.20105310  0.15465978     0.17200
O1762       O  0.63624990  0.25097247  0.13479528    -0.59800
H1763       H  0.65423529  0.26264681  0.14964902     0.44200
H1764       H  0.67567309  0.18905466  0.03086766     0.44200
C1765       C  0.66158909  0.41190082  0.91937832    -0.04900
C1766       C  0.65862215  0.41030048  0.87789066    -0.32300
C1767       C  0.65409028  0.43017008  0.85726211     0.36900
C1768       C  0.65254241  0.45203263  0.87802362    -0.05300
C1769       C  0.65451759  0.45317460  0.91927175    -0.32200
C1770       C  0.65888485  0.43337475  0.94000571     0.36800
H1771       H  0.66029413  0.39392821  0.86126500     0.17200
O1772       O  0.65259882  0.42890855  0.81679221    -0.59700
H1773       H  0.65339783  0.47005187  0.93544532     0.17200
O1774       O  0.66010630  0.43511405  0.98047812    -0.59800
H1775       H  0.67995537  0.44998415  0.98689891     0.44200
H1776       H  0.63200455  0.41889071  0.81043433     0.44200
C1777       C  0.59092554  0.34483030  0.07313243    -0.04900
C1778       C  0.59494188  0.35771992  0.11068384    -0.32300
C1779       C  0.57345243  0.36135751  0.12801233     0.36900
C1780       C  0.54791711  0.35258486  0.10724165    -0.05300
C1781       C  0.54490150  0.34135337  0.06873273    -0.32200
C1782       C  0.56586250  0.33701371  0.05200681     0.36800
H1783       H  0.61435193  0.36409479  0.12706235     0.17200
O1784       O  0.57684231  0.37167703  0.16598517    -0.59700
H1785       H  0.52567860  0.33504580  0.05189470     0.17200
O1786       O  0.56201598  0.32584911  0.01444155    -0.59800
H1787       H  0.55038290  0.30471627  0.01760092     0.44200
H1788       H  0.58868690  0.39285953  0.16372816     0.44200
C1789       C  0.78366242  0.44352606  0.15596047    -0.04900
C1790       C  0.79031783  0.42535809  0.13418202    -0.32300
C1791       C  0.77005957  0.40387453  0.10933833     0.36900
C1792       C  0.74277283  0.40057977  0.10567830    -0.05300
C1793       C  0.73545600  0.41712812  0.12994917    -0.32200
C1794       C  0.75558973  0.43834587  0.15514835     0.36800
H1795       H  0.81189080  0.42927423  0.13397204     0.17200
O1796       O  0.77802763  0.38819116  0.08599839    -0.59700
H1797       H  0.71428814  0.41424988  0.12845655     0.17200
O1798       O  0.74802271  0.45460872  0.17804979    -0.59800
H1799       H  0.74394654  0.46618860  0.15933221     0.44200
H1800       H  0.77530169  0.37192471  0.10264774     0.44200
C1801       C  0.75800153  0.35121552  0.92013114    -0.04900
C1802       C  0.78268855  0.35953874  0.94262338    -0.32300
C1803       C  0.80767952  0.36405065  0.92477295     0.36900
C1804       C  0.80838537  0.36006484  0.88381492    -0.05300
C1805       C  0.78431921  0.35304162  0.86080936    -0.32200
C1806       C  0.75925124  0.34891236  0.87863438     0.36800
H1807       H  0.78247881  0.36185986  0.97443075     0.17200
O1808       O  0.83074671  0.37017919  0.94799241    -0.61500
H1809       H  0.78450113  0.34925945  0.82935069     0.17200
O1810       O  0.73559904  0.34049757  0.85558954    -0.59800
H1811       H  0.73721216  0.35863042  0.84598555     0.44200
H1812       H  0.84217163  0.39146009  0.94908512     0.44200
C1813       C  0.74910959  0.09380181  0.90446553    -0.04900
C1814       C  0.72281991  0.08315910  0.92351888    -0.32300
C1815       C  0.69767995  0.06278819  0.90504767     0.36900
C1816       C  0.69862927  0.05227434  0.86729393    -0.05300
C1817       C  0.72459059  0.06407885  0.84715400    -0.32200
C1818       C  0.74978661  0.08507887  0.86535135     0.36800
H1819       H  0.72186950  0.09000283  0.95341349     0.17200
O1820       O  0.67263921  0.05128096  0.92557332    -0.59700
H1821       H  0.72552536  0.05580648  0.81824581     0.17200
O1822       O  0.77506021  0.09550774  0.84569331    -0.59800
H1823       H  0.78160501  0.08167328  0.85119008     0.44200
H1824       H  0.66400984  0.06301678  0.91809891     0.44200
C1825       C  0.69651094  0.13944387  0.11502724    -0.04900
C1826       C  0.72288390  0.16352987  0.12466029    -0.32300
C1827       C  0.74775726  0.16733837  0.10735890     0.36900
C1828       C  0.74646602  0.14667387  0.08041161    -0.05300
C1829       C  0.72049462  0.12128995  0.07366529    -0.32200
C1830       C  0.69548990  0.11771894  0.09042664     0.36800
H1831       H  0.72393794  0.18028382  0.14382073     0.17200
O1832       O  0.77298224  0.19192813  0.11558682    -0.59700
H1833       H  0.71923258  0.10512555  0.05312105     0.17200
O1834       O  0.67003047  0.09407484  0.08008803    -0.59800
H1835       H  0.66343729  0.09993176  0.05650781     0.44200
H1836       H  0.78231756  0.18635404  0.13605648     0.44200
C1837       C  0.85461413  0.30282005  0.88217588    -0.04900
C1838       C  0.86143497  0.30247252  0.92188183    -0.32300
C1839       C  0.85654365  0.27702979  0.93926429     0.36900
C1840       C  0.84471418  0.25136563  0.91673620    -0.05300
C1841       C  0.83906756  0.25198663  0.87640542    -0.32200
C1842       C  0.84347379  0.27753022  0.85923000     0.36800
H1843       H  0.86955869  0.32181505  0.93984445     0.17200
O1844       O  0.86290936  0.27737649  0.97856896    -0.59700
H1845       H  0.83005111  0.23245733  0.85874673     0.17200
O1846       O  0.83610698  0.27746161  0.82047450    -0.59800
H1847       H  0.81568528  0.27166079  0.82097053     0.44200
H1848       H  0.88263301  0.28093998  0.97916294     0.44200
C1849       C  0.90952637  0.15649926  0.91282108    -0.04900
C1850       C  0.91991789  0.14023787  0.93102908    -0.32300
C1851       C  0.94104639  0.13662076  0.91316482     0.36900
C1852       C  0.95265558  0.14992121  0.87693867    -0.05300
C1853       C  0.94196930  0.16573956  0.85816056    -0.32200
C1854       C  0.92024110  0.16879408  0.87566292     0.36800
H1855       H  0.91181903  0.13052649  0.95953460     0.17200
O1856       O  0.95155823  0.12162577  0.93257168    -0.59700
H1857       H  0.95093461  0.17622361  0.83035424     0.17200
O1858       O  0.91049107  0.18474380  0.85704912    -0.59800
H1859       H  0.92284609  0.20471999  0.86678782     0.44200
H1860       H  0.93859797  0.10118004  0.92529015     0.44200
C1861       C  0.90163633  0.24903548  0.08480276    -0.04900
C1862       C  0.90253151  0.27524371  0.07821976    -0.32300
C1863       C  0.92432716  0.30089923  0.09439666     0.36900
C1864       C  0.94537849  0.30042551  0.11799664    -0.05300
C1865       C  0.94281995  0.27385606  0.12763156    -0.32200
C1866       C  0.92133362  0.24829769  0.11087506     0.36800
H1867       H  0.88742996  0.27616062  0.05829328     0.17200
O1868       O  0.92649202  0.32645096  0.08360434    -0.59700
H1869       H  0.95856196  0.27312384  0.14642163     0.17200
O1870       O  0.91989781  0.22277759  0.11984428    -0.59800
H1871       H  0.93454724  0.22209141  0.10320682     0.44200
H1872       H  0.91247307  0.32831252  0.10020702     0.44200
C1873       C  0.83740062  0.04607758  0.13268412    -0.04900
C1874       C  0.86192424  0.06442666  0.11109105    -0.32300
C1875       C  0.86260508  0.08583968  0.08697077     0.36900
C1876       C  0.83824769  0.08854606  0.08336847    -0.05300
C1877       C  0.81416235  0.07086398  0.10585107    -0.32200
C1878       C  0.81378907  0.05022850  0.13086436     0.36800
H1879       H  0.88019596  0.06147296  0.11163393     0.17200
O1880       O  0.88648235  0.10274612  0.06520257    -0.59700
H1881       H  0.79553778  0.07320971  0.10428408     0.17200
O1882       O  0.78991091  0.03378867  0.15288171    -0.59800
H1883       H  0.79443595  0.04266337  0.17959919     0.44200
H1884       H  0.89954023  0.11828215  0.08353571     0.44200
C1885       C  0.95525194  0.44824671  0.79152501    -0.04900
C1886       C  0.94081321  0.45382499  0.82141368    -0.32300
C1887       C  0.91694835  0.43125412  0.83962960     0.36900
C1888       C  0.90710539  0.40248501  0.82779661    -0.05300
C1889       C  0.92297396  0.39703220  0.79976984    -0.32200
C1890       C  0.94705043  0.41957757  0.78209440     0.36800
H1891       H  0.94732236  0.47581776  0.82953294     0.17200
O1892       O  0.90398188  0.43749253  0.86976866    -0.59700
H1893       H  0.91628234  0.37521942  0.79050261     0.17200
O1894       O  0.96240758  0.41355501  0.75538137    -0.59800
H1895       H  0.94913570  0.40275513  0.73343736     0.44200
H1896       H  0.89549923  0.44811817  0.85740295     0.44200
C1897       C  0.50038797  0.04749228  0.79359035    -0.04900
C1898       C  0.52313534  0.06668810  0.81754240    -0.32300
C1899       C  0.52381310  0.09090358  0.83442265     0.36900
C1900       C  0.50216848  0.09730972  0.82561580    -0.05300
C1901       C  0.97728734  0.07664966  0.80271970    -0.32200
C1902       C  0.97659069  0.05207603  0.78740179     0.36800
H1903       H  0.54124128  0.06392432  0.82149634     0.17200
O1904       O  0.54601079  0.10825295  0.85904170    -0.59700
H1905       H  0.96080437  0.08113066  0.79380821     0.17200
O1906       O  0.95452173  0.03394773  0.76309170    -0.59800
H1907       H  0.94272553  0.01654791  0.77902135     0.44200
H1908       H  0.53843949  0.10261446  0.88614177     0.44200
C1909       C  0.55233113  0.49906897  0.78866947    -0.04900
C1910       C  0.55514630  0.47475214  0.78298214    -0.32300
C1911       C  0.57956828  0.47447236  0.79556951     0.36900
C1912       C  0.59789642  0.99420815  0.81976698    -0.05300
C1913       C  0.58901983  0.01242117  0.83635721    -0.32200
C1914       C  0.56516187  0.01277098  0.82154188     0.36800
H1915       H  0.53892618  0.45639862  0.76676965     0.17200
O1916       O  0.58226275  0.45116271  0.78585474    -0.59700
H1917       H  0.60093860  0.02685071  0.86047529     0.17200
O1918       O  0.55789897  0.03158259  0.83756186    -0.59800
H1919       H  0.54675596  0.02194754  0.86149710     0.44200
H1920       H  0.59122180  0.45547418  0.75940760     0.44200
C1921       C  0.95046554  0.45291226  0.70266430    -0.04900
C1922       C  0.92323778  0.44344507  0.71818421    -0.32300
C1923       C  0.89944329  0.41870667  0.70363569     0.36900
C1924       C  0.90198136  0.40411158  0.67053720    -0.05300
C1925       C  0.92828390  0.41605150  0.65124674    -0.32200
C1926       C  0.95250150  0.44040974  0.66688641     0.36800
H1927       H  0.92057863  0.45413317  0.74367034     0.17200
O1928       O  0.87437689  0.40764926  0.72407579    -0.59700
H1929       H  0.93016601  0.40622143  0.62421606     0.17200
O1930       O  0.97769260  0.45209490  0.64672944    -0.59800
H1931       H  0.97986738  0.43581147  0.63724792     0.44200
H1932       H  0.86748201  0.42135989  0.71997208     0.44200
C1933       C  0.50312274  0.05038811  0.70546227    -0.04900
C1934       C  0.52283007  0.07908055  0.71503985    -0.32300
C1935       C  0.52070817  0.10171454  0.69860312     0.36900
C1936       C  0.49917894  0.09597482  0.67061555    -0.05300
C1937       C  0.98061448  0.06603971  0.65867942    -0.32200
C1938       C  0.98230329  0.04369153  0.67719189     0.36800
H1939       H  0.53936389  0.08396407  0.73664795     0.17200
O1940       O  0.53850453  0.12916724  0.71225533    -0.59700
H1941       H  0.96453502  0.06062250  0.63614945     0.17200
O1942       O  0.96290499  0.01574346  0.66745544    -0.59800
H1943       H  0.94694906  0.01001991  0.68615106     0.44200
H1944       H  0.55775024  0.13426890  0.70296120     0.44200
C1945       C  0.55445705  0.00533271  0.70256874    -0.04900
C1946       C  0.58155464  0.02831691  0.71259965    -0.32300
C1947       C  0.60630785  0.02921539  0.69877397     0.36900
C1948       C  0.60425261  0.00715981  0.67374339    -0.05300
C1949       C  0.57440227  0.48073764  0.66652685    -0.32200
C1950       C  0.55019315  0.47984019  0.68224657     0.36800
H1951       H  0.58351336  0.04462379  0.73344090     0.17200
O1952       O  0.63223606  0.05027199  0.71269600    -0.59700
H1953       H  0.57176934  0.46196997  0.65072721     0.17200
O1954       O  0.52470314  0.45467575  0.68038940    -0.59800
H1955       H  0.52604682  0.44178171  0.69994586     0.44200
H1956       H  0.63611312  0.06801324  0.69874337     0.44200
C1957       C  0.00176843  0.49901362  0.78702841     0.46000
H1958       H  0.00169651  0.49820054  0.81981736    -0.03000
C1959       C  0.50318058  0.00110076  0.70811301     0.46100
H1960       H  0.50352511  0.00233770  0.67540516    -0.03000
C1961       C  0.97921448  0.97397732  0.76915841    -0.16700
C1962       C  0.99982278  0.52457150  0.77033767    -0.16400
C1963       C  0.52886682  0.99933325  0.76651007    -0.16800
C1964       C  0.97800335  0.97451093  0.72837791    -0.16800
C1965       C  0.00067386  0.52587323  0.72965263    -0.16400
C1966       C  0.52934239  0.00108530  0.72593129    -0.16700
O1967       O  0.81330654  0.60121628  0.03747364    -0.77900
C1968       C  0.76948245  0.64895405  0.05396344     0.83100
O1969       O  0.80041954  0.63633024  0.90747732    -0.79000
O1970       O  0.82803141  0.71968850  0.97204606    -0.80500
O1971       O  0.88727803  0.70442321  0.05322606    -0.80300
O1972       O  0.85814077  0.63283447  0.05426570    -0.78900
Zn1973     Zn  0.80040980  0.62494390  0.00691354     1.55700
O1974       O  0.85564114  0.71912182  0.05474436    -0.80300
Cd1975     Cd  0.86730122  0.66727078  0.01913870     1.59700
Cd1976     Cd  0.83728183  0.66701912  0.93608554     1.59600
O1977       O  0.89396943  0.66717738  0.97617733    -0.80300
O1978       O  0.83207906  0.66219644  0.99448941    -1.90800
Cd1979     Cd  0.82483697  0.69223170  0.01564839     1.59900
O1980       O  0.87148735  0.66266249  0.91907680    -0.80300
O1981       O  0.78685826  0.67483954  0.04459721    -0.78900
C1982       C  0.77908359  0.61380566  0.92122946     0.83600
C1983       C  0.83610694  0.60803989  0.05660771     0.83200
O1984       O  0.77271799  0.62822976  0.04249156    -0.77900
C1985       C  0.87940193  0.72194825  0.06482375     0.84100
O1986       O  0.77768726  0.60656986  0.95734013    -0.78000
C1987       C  0.89208756  0.66391716  0.93874035     0.84200
C1988       C  0.83978894  0.72516880  0.93826154     0.84500
O1989       O  0.84581521  0.70788623  0.92057781    -0.80400
C1990       C  0.88307578  0.87961610  0.84624526     0.03700
C1991       C  0.85799697  0.88092502  0.85213995    -0.12500
C1992       C  0.83380023  0.85751523  0.86852883     0.01200
C1993       C  0.83418877  0.83252073  0.87766994    -0.11000
C1994       C  0.85864038  0.83081186  0.87200887     0.03700
C1995       C  0.88308227  0.85425763  0.85663364    -0.10400
H1996       H  0.85713985  0.89993346  0.84435458     0.09300
H1997       H  0.81572398  0.81472415  0.89124994     0.06800
H1998       H  0.90225073  0.85296981  0.85400752     0.06700
O1999       O  0.63673344  0.85883721  0.04991787    -0.77900
C2000       C  0.72137447  0.87879605  0.07082926     0.83100
O2001       O  0.66397285  0.86584466  0.91755879    -0.79000
O2002       O  0.72881404  0.83459332  0.97417626    -0.80500
O2003       O  0.63652798  0.77314299  0.05225306    -0.80300
O2004       O  0.60482704  0.81319314  0.03639708    -0.78900
Zn2005     Zn  0.67113837  0.86650010  0.01804023     1.55700
O2006       O  0.68106472  0.78429467  0.03840484    -0.80300
Cd2007     Cd  0.63105284  0.79912420  0.01268798     1.59700
Cd2008     Cd  0.67075386  0.83341557  0.93722428     1.59600
O2009       O  0.61235551  0.77270736  0.96444753    -0.80300
O2010       O  0.66802868  0.83188607  0.99626563    -1.90800
Cd2011     Cd  0.69856078  0.82589038  0.01720234     1.59900
O2012       O  0.64004149  0.79463272  0.91251697    -0.80300
O2013       O  0.72020065  0.85517475  0.06185345    -0.78900
C2014       C  0.66545294  0.88723226  0.93630309     0.83600
C2015       C  0.61152294  0.83760090  0.05156475     0.83200
O2016       O  0.70510001  0.88652059  0.05463255    -0.77900
C2017       C  0.65676914  0.76772825  0.05361797     0.84100
O2018       O  0.67078726  0.89090509  0.97331317    -0.78000
C2019       C  0.61855746  0.77322401  0.92804296     0.84200
C2020       C  0.73085287  0.84114171  0.93770823     0.84500
O2021       O  0.71077345  0.84177210  0.91910943    -0.80400
C2022       C  0.62107791  0.61595635  0.14877771     0.03700
C2023       C  0.62003215  0.64058936  0.13711138    -0.12500
C2024       C  0.64338858  0.66325231  0.11807277     0.01200
C2025       C  0.66803014  0.66179268  0.11242403    -0.11000
C2026       C  0.66920483  0.63740246  0.12303402     0.03700
C2027       C  0.64559269  0.61432487  0.14056814    -0.10400
H2028       H  0.60110103  0.64196433  0.14222948     0.09300
H2029       H  0.68613975  0.67942159  0.09801776     0.06800
H2030       H  0.64632941  0.59510166  0.14753192     0.06700
C2031       C  0.62836736  0.49951657  0.82908422     0.03700
C2032       C  0.65449389  0.52590502  0.82972425    -0.12500
C2033       C  0.67932149  0.52743139  0.84465553     0.01200
C2034       C  0.67848199  0.50237043  0.85711145    -0.11000
C2035       C  0.65043135  0.97289272  0.85721327     0.03700
C2036       C  0.62536068  0.97097765  0.84303093    -0.10400
H2037       H  0.65555162  0.54552127  0.81992696     0.09300
H2038       H  0.69735107  0.50363375  0.86996343     0.06800
H2039       H  0.60615306  0.95014781  0.84130867     0.06700
C2040       C  0.49837612  0.87407023  0.15477251     0.03700
C2041       C  0.52350468  0.87478693  0.14174330    -0.12500
C2042       C  0.52206279  0.85047587  0.12321815     0.01200
C2043       C  0.49572226  0.82528823  0.11957272    -0.11000
C2044       C  0.97121172  0.82573683  0.12734706     0.03700
C2045       C  0.97245706  0.85018912  0.14411770    -0.10400
H2046       H  0.54392482  0.89418108  0.14530611     0.09300
H2047       H  0.49456309  0.80647612  0.10570241     0.06800
H2048       H  0.95279525  0.84951647  0.15146967     0.06700
C2049       C  0.50053105  0.62213732  0.84103708     0.03700
C2050       C  0.97656112  0.62427107  0.85157331    -0.12500
C2051       C  0.97949865  0.65077378  0.86278927     0.01200
C2052       C  0.50392171  0.67414520  0.86376415    -0.11000
C2053       C  0.52874391  0.67372551  0.85452916     0.03700
C2054       C  0.52696331  0.64789613  0.84231747    -0.10400
H2055       H  0.95575348  0.60510193  0.85254843     0.09300
H2056       H  0.50534013  0.69379872  0.87486465     0.06800
H2057       H  0.54630395  0.64798850  0.83455053     0.06700
C2058       C  0.85604533  0.99734286  0.19144822     0.03700
C2059       C  0.83070450  0.97082763  0.18603445    -0.12500
C2060       C  0.80844140  0.96901926  0.16298301     0.01200
C2061       C  0.81099159  0.99395703  0.14679891    -0.11000
C2062       C  0.83416591  0.52299739  0.16064079     0.03700
C2063       C  0.85731452  0.52439428  0.18104618    -0.10400
H2064       H  0.82863347  0.95121586  0.19755708     0.09300
H2065       H  0.79473997  0.99215975  0.12654421     0.06800
H2066       H  0.87704609  0.54457374  0.18162221     0.06700
O2067       O  0.86535919  0.64484704  0.42926146    -0.77900
C2068       C  0.88941083  0.73180078  0.43770657     0.83100
O2069       O  0.86144374  0.65680912  0.57088788    -0.79000
O2070       O  0.83358155  0.72665585  0.51526481    -0.80500
O2071       O  0.77598065  0.63798913  0.43190423    -0.80300
O2072       O  0.81950769  0.61144115  0.43267977    -0.78900
Zn2073     Zn  0.86991605  0.67313992  0.47244942     1.55700
O2074       O  0.79185584  0.68500725  0.43579202    -0.80300
Cd2075     Cd  0.80301769  0.63143046  0.46708469     1.59700
Cd2076     Cd  0.83188940  0.66686660  0.54789164     1.59600
O2077       O  0.77740926  0.60630114  0.51234438    -0.80300
O2078       O  0.83388416  0.66786155  0.48884622    -1.90800
Cd2079     Cd  0.82956142  0.69989983  0.46821256     1.59900
O2080       O  0.79154049  0.63497448  0.56546006    -0.80300
O2081       O  0.86401747  0.72671839  0.43386031    -0.78900
C2082       C  0.88212158  0.65655290  0.55348501     0.83600
C2083       C  0.84440692  0.62052789  0.41896663     0.83200
O2084       O  0.89512120  0.71412311  0.45452017    -0.77900
C2085       C  0.77364213  0.65975006  0.42361753     0.84100
O2086       O  0.88769870  0.66356903  0.51735211    -0.78000
C2087       C  0.77371828  0.61160359  0.54798437     0.84200
C2088       C  0.84006727  0.72778664  0.55179850     0.84500
O2089       O  0.84092518  0.70708753  0.56871004    -0.80400
C2090       C  0.87789648  0.87826462  0.65854530     0.03700
C2091       C  0.88017208  0.85409373  0.64753343    -0.12500
C2092       C  0.85631987  0.82907764  0.63291523     0.01200
C2093       C  0.83019556  0.82799393  0.63002468    -0.11000
C2094       C  0.82789600  0.85201959  0.63950990     0.03700
C2095       C  0.85169118  0.87712282  0.65344818    -0.10400
H2096       H  0.90042017  0.85488775  0.64953115     0.09300
H2097       H  0.81210805  0.80915060  0.61712619     0.06800
H2098       H  0.85000331  0.89610636  0.65859665     0.06700
O2099       O  0.61542947  0.82882112  0.45750192    -0.77900
C2100       C  0.65543986  0.77355195  0.45152624     0.83100
O2101       O  0.63226293  0.79156265  0.58438700    -0.79000
O2102       O  0.72540760  0.83625851  0.53365958    -0.80500
O2103       O  0.71828053  0.89838035  0.47501698    -0.80300
O2104       O  0.64831614  0.87542499  0.46018581    -0.78900
Zn2105     Zn  0.63197921  0.80860107  0.48823323     1.55700
O2106       O  0.72212400  0.86224005  0.44919380    -0.80300
Cd2107     Cd  0.67764172  0.87602179  0.49929312     1.59700
Cd2108     Cd  0.66636868  0.83164692  0.57048676     1.59600
O2109       O  0.67270672  0.89538071  0.54906590    -0.80300
O2110       O  0.66745161  0.83629523  0.51195470    -1.90800
Cd2111     Cd  0.69755098  0.83072916  0.48949600     1.59900
O2112       O  0.66025277  0.86300803  0.59722302    -0.80300
O2113       O  0.68014306  0.78995076  0.46590623    -0.78900
C2114       C  0.60917283  0.77623725  0.56521437     0.83600
C2115       C  0.62424964  0.85499947  0.44863864     0.83200
O2116       O  0.63592554  0.78001263  0.45334846    -0.77900
C2117       C  0.73101345  0.88904712  0.45290339     0.84100
O2118       O  0.60550445  0.78304351  0.53054393    -0.78000
C2119       C  0.66423218  0.88690462  0.58411687     0.84200
C2120       C  0.72589103  0.83877324  0.57109477     0.84500
O2121       O  0.70477081  0.83654982  0.59049858    -0.80400
C2122       C  0.62734067  0.50334606  0.66031733     0.03700
C2123       C  0.62963136  0.97949208  0.66270480    -0.12500
C2124       C  0.65297651  0.97754729  0.64906774     0.01200
C2125       C  0.67440513  0.49947954  0.63453190    -0.11000
C2126       C  0.67486473  0.52560441  0.63145827     0.03700
C2127       C  0.65132037  0.52752404  0.64422442    -0.10400
H2128       H  0.61110336  0.96034041  0.67350078     0.09300
H2129       H  0.69198259  0.49764330  0.62280163     0.06800
H2130       H  0.65118186  0.54731592  0.63947779     0.06700
C2131       C  0.49609360  0.62051798  0.65347173     0.03700
C2132       C  0.96789975  0.61587125  0.64473511    -0.12500
C2133       C  0.96587924  0.63842663  0.62737267     0.01200
C2134       C  0.49187207  0.66592915  0.62018810    -0.11000
C2135       C  0.51858677  0.66890774  0.62568315     0.03700
C2136       C  0.52077300  0.64634703  0.64259188    -0.10400
H2137       H  0.94865571  0.59614957  0.65213013     0.09300
H2138       H  0.49018579  0.68320884  0.60653709     0.06800
H2139       H  0.54156631  0.64853139  0.64570509     0.06700
C2140       C  0.00788363  0.88861168  0.35938079     0.03700
C2141       C  0.98241851  0.86300285  0.36859308    -0.12500
C2142       C  0.98324738  0.83958575  0.38532429     0.01200
C2143       C  0.00945319  0.84123342  0.39070152    -0.11000
C2144       C  0.53409056  0.86707755  0.38443044     0.03700
C2145       C  0.53330919  0.89096594  0.36996788    -0.10400
H2146       H  0.96202896  0.86126519  0.36313951     0.09300
H2147       H  0.01011402  0.82302935  0.40301719     0.06800
H2148       H  0.55314188  0.91090161  0.36638818     0.06700
C2149       C  0.61766577  0.62181123  0.34968016     0.03700
C2150       C  0.64396735  0.62241327  0.34906191    -0.12500
C2151       C  0.66872337  0.64615383  0.36474502     0.01200
C2152       C  0.66696254  0.66940292  0.38009736    -0.11000
C2153       C  0.64111113  0.66896459  0.38226219     0.03700
C2154       C  0.61654633  0.64537119  0.36635741    -0.10400
H2155       H  0.64525444  0.60467165  0.33602312     0.09300
H2156       H  0.68587913  0.68778454  0.39209131     0.06800
H2157       H  0.59647838  0.64499178  0.36795588     0.06700
C2158       C  0.87215449  0.49825742  0.33180714     0.03700
C2159       C  0.87340774  0.52503577  0.33273848    -0.12500
C2160       C  0.85177380  0.52792182  0.35076182     0.01200
C2161       C  0.82873169  0.50372751  0.36742747    -0.11000
C2162       C  0.82898227  0.97576209  0.36935930     0.03700
C2163       C  0.85012593  0.97315226  0.34871432    -0.10400
H2164       H  0.89140243  0.54364668  0.31984413     0.09300
H2165       H  0.81190655  0.50591694  0.38108236     0.06800
H2166       H  0.85001465  0.95296159  0.34875635     0.06700
C2167       C  0.00093266  0.99792852  0.20780866     0.46000
H2168       H  0.00244195  0.99673388  0.17521420    -0.03000
C2169       C  0.99517870  0.00097979  0.28412577     0.46100
H2170       H  0.99354033  0.00215492  0.31660860    -0.03000
C2171       C  0.52472918  0.52474661  0.23018849    -0.16700
C2172       C  0.97437442  0.99779164  0.22102367    -0.16400
C2173       C  0.00001242  0.97287052  0.23007817    -0.16800
C2174       C  0.52167764  0.52650209  0.27042521    -0.16800
C2175       C  0.97013463  0.99942236  0.25920157    -0.16400
C2176       C  0.99776271  0.97475350  0.27055404    -0.16700
C2177       C  0.89596026  0.49648064  0.31331084    -0.04900
C2178       C  0.89371163  0.48675264  0.27427840    -0.32300
C2179       C  0.91795281  0.49613635  0.24561029     0.36900
C2180       C  0.94348205  0.00074999  0.27136154    -0.05300
C2181       C  0.94488324  0.00935598  0.31110098    -0.32200
C2182       C  0.92229569  0.00894346  0.32972136     0.36800
H2183       H  0.87142577  0.47395787  0.26639379     0.17200
O2184       O  0.91756587  0.50148901  0.18199161    -0.59700
H2185       H  0.96413262  0.01722307  0.32826854     0.17200
O2186       O  0.92525923  0.01919683  0.36773387    -0.59800
H2187       H  0.91967080  0.00230310  0.38484465     0.44200
H2188       H  0.92358200  0.51567340  0.15921821     0.44200
C2189       C  0.54315526  0.55058371  0.29548498    -0.04900
C2190       C  0.55921566  0.54528751  0.32301583    -0.32300
C2191       C  0.58332512  0.56815178  0.34122813     0.36900
C2192       C  0.59140719  0.59691633  0.33253568    -0.05300
C2193       C  0.57416758  0.60202063  0.30678996    -0.32200
C2194       C  0.55035503  0.57919280  0.28820497     0.36800
H2195       H  0.55385750  0.52336714  0.32897143     0.17200
O2196       O  0.59848981  0.56218650  0.36810653    -0.59700
H2197       H  0.57969454  0.62386603  0.29998655     0.17200
O2198       O  0.53420261  0.58492227  0.26277519    -0.59800
H2199       H  0.54682829  0.59535909  0.24031302     0.44200
H2200       H  0.60858422  0.55447710  0.35234701     0.44200
C2201       C  0.00709950  0.91319347  0.33999254    -0.04900
C2202       C  0.98512463  0.91911662  0.34861620    -0.32300
C2203       C  0.98240860  0.94007844  0.32765537     0.36900
C2204       C  0.00220876  0.95604260  0.29828717    -0.05300
C2205       C  0.52522811  0.95231636  0.29265412    -0.32200
C2206       C  0.52723960  0.93067287  0.31217966     0.36800
H2207       H  0.96948399  0.90698565  0.37094244     0.17200
O2208       O  0.95920442  0.94319724  0.33395046    -0.59700
H2209       H  0.54097658  0.96476719  0.27052616     0.17200
O2210       O  0.54792770  0.92476260  0.30045186    -0.59800
H2211       H  0.56621337  0.94167579  0.30881790     0.44200
H2212       H  0.96445049  0.95661988  0.35675141     0.44200
C2213       C  0.58642437  0.74882834  0.58200950    -0.04900
C2214       C  0.56531416  0.72869216  0.55644080    -0.32300
C2215       C  0.54420673  0.70208211  0.57013764     0.36900
C2216       C  0.54348648  0.69504780  0.61024258    -0.05300
C2217       C  0.56469111  0.71470259  0.63592377    -0.32200
C2218       C  0.58601669  0.74152609  0.62215635     0.36800
H2219       H  0.56522077  0.73336762  0.52538659     0.17200
O2220       O  0.52392780  0.68319455  0.54414645    -0.59700
H2221       H  0.56410953  0.70966298  0.66695675     0.17200
O2222       O  0.60601004  0.76048223  0.64832766    -0.59800
H2223       H  0.59784871  0.77192857  0.65924743     0.44200
H2224       H  0.53113830  0.67056024  0.53464176     0.44200
C2225       C  0.64905074  0.74561104  0.43453477    -0.04900
C2226       C  0.65886646  0.72960606  0.45461262    -0.32300
C2227       C  0.65448176  0.70354700  0.43916889     0.36900
C2228       C  0.64066366  0.69335525  0.40237683    -0.05300
C2229       C  0.62939394  0.70855297  0.38327233    -0.32200
C2230       C  0.63319481  0.73440439  0.39945089     0.36800
H2231       H  0.67003080  0.73735043  0.48253147     0.17200
O2232       O  0.66344087  0.68787967  0.46042319    -0.59700
H2233       H  0.61869083  0.70101930  0.35504033     0.17200
O2234       O  0.62294965  0.74941871  0.37952461    -0.59800
H2235       H  0.60311970  0.74140663  0.38880217     0.44200
H2236       H  0.68448291  0.69961037  0.46118988     0.44200
C2237       C  0.65743279  0.90507135  0.60895974    -0.04900
C2238       C  0.67638541  0.92270361  0.63841755    -0.32300
C2239       C  0.67354613  0.94506627  0.65519802     0.36900
C2240       C  0.65131194  0.94951949  0.64275410    -0.05300
C2241       C  0.63080467  0.92992768  0.61623512    -0.32200
C2242       C  0.63387085  0.90793081  0.59915543     0.36800
H2243       H  0.69447172  0.92047373  0.64632144     0.17200
O2244       O  0.69323554  0.96330775  0.68233252    -0.59700
H2245       H  0.61379362  0.93323749  0.60603511     0.17200
O2246       O  0.61500094  0.89077533  0.57049063    -0.59800
H2247       H  0.60158112  0.87270788  0.58408301     0.44200
H2248       H  0.71081077  0.97533139  0.66710350     0.44200
C2249       C  0.75716389  0.90993494  0.43201262    -0.04900
C2250       C  0.77602475  0.93599864  0.45081033    -0.32300
C2251       C  0.80047428  0.95675276  0.43160295     0.36900
C2252       C  0.80627623  0.95186989  0.39251075    -0.05300
C2253       C  0.78815856  0.92522795  0.37437034    -0.32200
C2254       C  0.76386668  0.90422563  0.39396595     0.36800
H2255       H  0.77179832  0.94035461  0.48059886     0.17200
O2256       O  0.81887020  0.98169223  0.45139843    -0.59700
H2257       H  0.79217163  0.92115851  0.34433684     0.17200
O2258       O  0.74589042  0.87896785  0.37468131    -0.59800
H2259       H  0.75402056  0.86634690  0.37923073     0.44200
H2260       H  0.80843704  0.99225469  0.45508908     0.44200
C2261       C  0.60524740  0.86183348  0.42614875    -0.04900
C2262       C  0.58729553  0.84250062  0.39715024    -0.32300
C2263       C  0.56562953  0.84573190  0.38043429     0.36900
C2264       C  0.56111211  0.86804834  0.39355516    -0.05300
C2265       C  0.58043155  0.88872936  0.42018597    -0.32200
C2266       C  0.60245736  0.88577027  0.43650655     0.36800
H2267       H  0.58944796  0.82426017  0.38843025     0.17200
O2268       O  0.54787471  0.82598438  0.35293504    -0.59700
H2269       H  0.57723869  0.90601486  0.43051681     0.17200
O2270       O  0.61970908  0.90513889  0.46474421    -0.59800
H2271       H  0.60970330  0.89752822  0.49012317     0.44200
H2272       H  0.55698762  0.83374899  0.32708535     0.44200
C2273       C  0.80229964  0.85236123  0.62673251    -0.04900
C2274       C  0.80354880  0.86610557  0.59131316    -0.32300
C2275       C  0.77879444  0.86235205  0.57357613     0.36900
C2276       C  0.75223695  0.84501622  0.59176906    -0.05300
C2277       C  0.75119039  0.83267239  0.62858550    -0.32200
C2278       C  0.77608669  0.83601217  0.64590987     0.36800
H2279       H  0.82368233  0.87865173  0.57633917     0.17200
O2280       O  0.78078039  0.87580921  0.53844798    -0.59700
H2281       H  0.73097360  0.81935866  0.64294760     0.17200
O2282       O  0.77447590  0.82225921  0.68056372    -0.59800
H2283       H  0.77897940  0.83688347  0.70161409     0.44200
H2284       H  0.78312441  0.86388320  0.51793320     0.44200
C2285       C  0.89999931  0.64737729  0.57486945    -0.04900
C2286       C  0.90533750  0.65275706  0.61561773    -0.32300
C2287       C  0.92495926  0.64714655  0.63470094     0.36900
C2288       C  0.93886807  0.63532145  0.61322857    -0.05300
C2289       C  0.93187055  0.62790555  0.57344236    -0.32200
C2290       C  0.91292166  0.63408844  0.55412021     0.36800
H2291       H  0.89559257  0.66285868  0.63212975     0.17200
O2292       O  0.93209736  0.65541221  0.67338489    -0.59700
H2293       H  0.94284211  0.61928709  0.55646608     0.17200
O2294       O  0.90747679  0.62737495  0.51469676    -0.59800
H2295       H  0.92402272  0.64290405  0.50065683     0.44200
H2296       H  0.92163924  0.63746595  0.68877761     0.44200
C2297       C  0.84925933  0.60142997  0.39243382    -0.04900
C2298       C  0.87465939  0.60075046  0.39561043    -0.32300
C2299       C  0.87708894  0.57832594  0.37826945     0.36900
C2300       C  0.85392572  0.55627588  0.35723345    -0.05300
C2301       C  0.82994824  0.55898017  0.35010122    -0.32200
C2302       C  0.82740115  0.58118791  0.36774432     0.36800
H2303       H  0.89179427  0.61623585  0.41428676     0.17200
O2304       O  0.90080028  0.57639310  0.38603152    -0.59700
H2305       H  0.81218098  0.54253715  0.33327393     0.17200
O2306       O  0.80310585  0.58242681  0.36169861    -0.59800
H2307       H  0.78851440  0.56729733  0.37873142     0.44200
H2308       H  0.91498089  0.58883085  0.36618473     0.44200
C2309       C  0.69859888  0.54916437  0.60970178    -0.04900
C2310       C  0.70436391  0.54337987  0.57148265    -0.32300
C2311       C  0.72853700  0.56331624  0.55128580     0.36900
C2312       C  0.74770927  0.59007925  0.56910050    -0.05300
C2313       C  0.74139352  0.59621283  0.60713221    -0.32200
C2314       C  0.71693834  0.57602053  0.62730302     0.36800
H2315       H  0.69025951  0.52283047  0.55746399     0.17200
O2316       O  0.73312203  0.55613550  0.51413866    -0.59700
H2317       H  0.75551231  0.61659567  0.62146472     0.17200
O2318       O  0.71194651  0.58212465  0.66485955    -0.59800
H2319       H  0.70183736  0.59299670  0.66135754     0.44200
H2320       H  0.74326275  0.54535475  0.51833735     0.44200
C2321       C  0.74808722  0.65483545  0.40114667    -0.04900
C2322       C  0.72289963  0.62803726  0.40392983    -0.32300
C2323       C  0.69712636  0.62385726  0.38870973     0.36900
C2324       C  0.69617973  0.64659065  0.36980557    -0.05300
C2325       C  0.72195074  0.67236026  0.36330682    -0.32200
C2326       C  0.74762859  0.67674218  0.37926215     0.36800
H2327       H  0.72269962  0.61073051  0.42035025     0.17200
O2328       O  0.67262615  0.59853372  0.39628913    -0.59700
H2329       H  0.72187581  0.68993713  0.34799946     0.17200
O2330       O  0.77201443  0.70262286  0.37374886    -0.59800
H2331       H  0.77117528  0.71591791  0.39344782     0.44200
H2332       H  0.67179187  0.58485047  0.37581271     0.44200
C2333       C  0.95746745  0.81333630  0.39914291    -0.04900
C2334       C  0.95826074  0.80255512  0.43654002    -0.32300
C2335       C  0.93652840  0.77578813  0.44878799     0.36900
C2336       C  0.91286121  0.75958016  0.42415608    -0.05300
C2337       C  0.91119564  0.77082601  0.38758050    -0.32200
C2338       C  0.93348015  0.79742892  0.37476282     0.36800
H2339       H  0.97625511  0.81471891  0.45610011     0.17200
O2340       O  0.93815218  0.76609141  0.48552975    -0.59700
H2341       H  0.89295710  0.75859271  0.36846965     0.17200
O2342       O  0.93243911  0.80674415  0.33754243    -0.59800
H2343       H  0.91904780  0.81412828  0.33942911     0.44200
H2344       H  0.95032044  0.75736447  0.48210475     0.44200
C2345       C  0.84756801  0.75447799  0.57444087    -0.04900
C2346       C  0.85687533  0.78023982  0.55372798    -0.32300
C2347       C  0.86233879  0.80545966  0.57339811     0.36900
C2348       C  0.85854159  0.80536648  0.61446481    -0.05300
C2349       C  0.85073387  0.78021482  0.63568637    -0.32200
C2350       C  0.84553043  0.75491430  0.61604677     0.36800
H2351       H  0.85937344  0.78076268  0.52193417     0.17200
O2352       O  0.87021782  0.82988475  0.55201419    -0.59700
H2353       H  0.84731458  0.77982713  0.66726238     0.17200
O2354       O  0.83737332  0.73056017  0.63766993    -0.59800
H2355       H  0.81633914  0.72071594  0.63860617     0.44200
H2356       H  0.85214621  0.82857082  0.54356359     0.44200
C2357       C  0.88218870  0.99756726  0.20481918    -0.04900
C2358       C  0.88289573  0.96185177  0.19978813    -0.32300
C2359       C  0.91833326  0.96250363  0.19731736     0.36900
C2360       C  0.95357974  0.99855401  0.19890407    -0.05300
C2361       C  0.95288778  0.53534584  0.21114560    -0.32200
C2362       C  0.91740188  0.53473500  0.21562124     0.36800
H2363       H  0.86352874  0.94144680  0.19622428     0.17200
O2364       O  0.91842056  0.93710787  0.19771549    -0.59700
H2365       H  0.97251391  0.55486076  0.21820737     0.17200
O2366       O  0.91779771  0.55984658  0.22390256    -0.59800
H2367       H  0.90441291  0.55513728  0.24616767     0.44200
H2368       H  0.93710070  0.94167209  0.18683277     0.44200
C2369       C  0.49913794  0.89956806  0.17443107    -0.04900
C2370       C  0.51809228  0.92770103  0.16150523    -0.32300
C2371       C  0.51861355  0.95170726  0.17924222     0.36900
C2372       C  0.99995282  0.94820796  0.20914766    -0.05300
C2373       C  0.98097199  0.92002527  0.22118089    -0.32200
C2374       C  0.98109150  0.89643512  0.20369440     0.36800
H2375       H  0.53254728  0.93118313  0.13743451     0.17200
O2376       O  0.53820508  0.97872108  0.16674464    -0.59700
H2377       H  0.96612641  0.91618213  0.24486060     0.17200
O2378       O  0.96421283  0.86967973  0.21950727    -0.59800
H2379       H  0.94435164  0.86499734  0.21470424     0.44200
H2380       H  0.55389244  0.98598311  0.18636760     0.44200
C2381       C  0.54932110  0.54648540  0.20722020    -0.04900
C2382       C  0.57703615  0.55550150  0.22017616    -0.32300
C2383       C  0.60048495  0.57815103  0.20172187     0.36900
C2384       C  0.59651748  0.59163933  0.16868913    -0.05300
C2385       C  0.56878256  0.58164647  0.15459216    -0.32200
C2386       C  0.54529226  0.55935806  0.17370341     0.36800
H2387       H  0.58054191  0.54543525  0.24544279     0.17200
O2388       O  0.62701643  0.58814480  0.21776233    -0.59700
H2389       H  0.56525522  0.59132776  0.12887908     0.17200
O2390       O  0.51846831  0.55095843  0.16014125    -0.59800
H2391       H  0.51380776  0.56514705  0.17144978     0.44200
H2392       H  0.63160492  0.57270804  0.21299330     0.44200
C2393       C  0.55622377  0.69877010  0.86607764    -0.04900
C2394       C  0.57043783  0.69591243  0.89869362    -0.32300
C2395       C  0.59196249  0.72017870  0.91780643     0.36900
C2396       C  0.59998590  0.74779567  0.90380358    -0.05300
C2397       C  0.58761363  0.75063878  0.86904995    -0.32200
C2398       C  0.56535943  0.72626739  0.85057024     0.36800
H2399       H  0.56334630  0.67490327  0.91121193     0.17200
O2400       O  0.60388933  0.71676416  0.95155007    -0.59700
H2401       H  0.59372804  0.77180026  0.85794948     0.17200
O2402       O  0.55196475  0.72949681  0.81834346    -0.59800
H2403       H  0.53899192  0.73577414  0.82917343     0.44200
H2404       H  0.62173651  0.71770082  0.94285045     0.44200
C2405       C  0.65132192  0.74045764  0.07080107    -0.04900
C2406       C  0.65251596  0.72021415  0.04592421    -0.32300
C2407       C  0.64804877  0.69416065  0.06084017     0.36900
C2408       C  0.64254051  0.68811524  0.10136817    -0.05300
C2409       C  0.64026764  0.70793055  0.12612927    -0.32200
C2410       C  0.64457406  0.73405976  0.11096856     0.36800
H2411       H  0.65702615  0.72467783  0.01476259     0.17200
O2412       O  0.64905685  0.67456438  0.03563871    -0.59700
H2413       H  0.63635067  0.70366777  0.15740689     0.17200
O2414       O  0.64307068  0.75353376  0.13576230    -0.59800
H2415       H  0.66290591  0.76671276  0.14450216     0.44200
H2416       H  0.66944326  0.68256693  0.02936750     0.44200
C2417       C  0.65980206  0.90786967  0.91507887    -0.04900
C2418       C  0.66320423  0.91089810  0.87380931    -0.32300
C2419       C  0.65864405  0.93099752  0.85382666     0.36900
C2420       C  0.65029941  0.94804446  0.87508508    -0.05300
C2421       C  0.64558870  0.94413284  0.91572700    -0.32200
C2422       C  0.65028622  0.92434530  0.93579255     0.36800
H2423       H  0.67016134  0.89826752  0.85719721     0.17200
O2424       O  0.66361181  0.93473675  0.81399649    -0.59700
H2425       H  0.63916029  0.95726029  0.93224358     0.17200
O2426       O  0.64497863  0.92095152  0.97559011    -0.59800
H2427       H  0.66198927  0.93707240  0.98836292     0.44200
H2428       H  0.64459659  0.92372962  0.80137077     0.44200
C2429       C  0.58934941  0.84195018  0.06992970    -0.04900
C2430       C  0.59334567  0.85427292  0.10788184    -0.32300
C2431       C  0.57216394  0.85835102  0.12542943     0.36900
C2432       C  0.54691327  0.85065443  0.10452696    -0.05300
C2433       C  0.54376852  0.83964982  0.06581461    -0.32200
C2434       C  0.56444142  0.83488794  0.04882161     0.36800
H2435       H  0.61255940  0.85996551  0.12435504     0.17200
O2436       O  0.57555903  0.86809601  0.16370743    -0.59700
H2437       H  0.52471471  0.83399024  0.04892941     0.17200
O2438       O  0.56051328  0.82415915  0.01099289    -0.59800
H2439       H  0.54894243  0.80298655  0.01372627     0.44200
H2440       H  0.58800724  0.88924568  0.16212219     0.44200
C2441       C  0.78471889  0.94121117  0.14873987    -0.04900
C2442       C  0.79092554  0.92326241  0.12572402    -0.32300
C2443       C  0.77001465  0.90171854  0.10168035     0.36900
C2444       C  0.74250034  0.89808710  0.10028569    -0.05300
C2445       C  0.73576187  0.91452594  0.12565953    -0.32200
C2446       C  0.75661828  0.93590331  0.14990402     0.36800
H2447       H  0.81255614  0.92743295  0.12394619     0.17200
O2448       O  0.77746891  0.88637968  0.07676736    -0.59700
H2449       H  0.71451138  0.91148701  0.12568041     0.17200
O2450       O  0.74973016  0.95229490  0.17365828    -0.59800
H2451       H  0.74649494  0.96476567  0.15551411     0.44200
H2452       H  0.77584863  0.87031069  0.09285833     0.44200
C2453       C  0.75764792  0.84868373  0.91701362    -0.04900
C2454       C  0.78351710  0.86396879  0.93765991    -0.32300
C2455       C  0.80906667  0.86960417  0.92017988     0.36900
C2456       C  0.80902100  0.85943445  0.88178623    -0.05300
C2457       C  0.78340883  0.84498801  0.86053052    -0.32200
C2458       C  0.75784432  0.83997589  0.87766466     0.36800
H2459       H  0.78384493  0.87103889  0.96782634     0.17200
O2460       O  0.83367568  0.88295022  0.94203491    -0.61500
H2461       H  0.78303801  0.83630098  0.83140034     0.17200
O2462       O  0.73292934  0.82440195  0.85698542    -0.59800
H2463       H  0.73166676  0.83851427  0.83970497     0.44200
H2464       H  0.84306823  0.90346433  0.93444131     0.44200
C2465       C  0.75429395  0.59604509  0.89571742    -0.04900
C2466       C  0.72748076  0.59047743  0.90842224    -0.32300
C2467       C  0.70280035  0.57046720  0.88853557     0.36900
C2468       C  0.70463377  0.55505943  0.85597111    -0.05300
C2469       C  0.73158390  0.56195896  0.84165510    -0.32200
C2470       C  0.75640875  0.58261891  0.86110029     0.36800
H2471       H  0.72561032  0.60083557  0.93493616     0.17200
O2472       O  0.67688013  0.56375669  0.90388537    -0.59700
H2473       H  0.73328228  0.54995094  0.81699473     0.17200
O2474       O  0.78240588  0.58797962  0.84776549    -0.59800
H2475       H  0.78611082  0.57400526  0.86162862     0.44200
H2476       H  0.67116295  0.57604178  0.88947283     0.44200
C2477       C  0.69489203  0.63618047  0.11283944    -0.04900
C2478       C  0.72149267  0.65950073  0.12346675    -0.32300
C2479       C  0.74622970  0.66298768  0.10614467     0.36900
C2480       C  0.74457110  0.64291615  0.07780476    -0.05300
C2481       C  0.71830307  0.61812484  0.06999395    -0.32200
C2482       C  0.69342660  0.61479284  0.08706403     0.36800
H2483       H  0.72289181  0.67593619  0.14360553     0.17200
O2484       O  0.77176544  0.68678008  0.11577370    -0.59700
H2485       H  0.71677042  0.60235631  0.04850744     0.17200
O2486       O  0.66771727  0.59177226  0.07605804    -0.59800
H2487       H  0.66155305  0.59834690  0.05277024     0.44200
H2488       H  0.78051013  0.68002426  0.13555762     0.44200
C2489       C  0.85885566  0.80548410  0.88723152    -0.04900
C2490       C  0.86006434  0.80301443  0.92814480    -0.32300
C2491       C  0.85454019  0.77714710  0.94479861     0.36900
C2492       C  0.84749050  0.75304961  0.92036290    -0.05300
C2493       C  0.84780936  0.75601180  0.87912780    -0.32200
C2494       C  0.85308719  0.78203359  0.86250796     0.36800
H2495       H  0.86424257  0.82096222  0.94734474     0.17200
O2496       O  0.85566973  0.77556623  0.98513201    -0.59700
H2497       H  0.84275746  0.73784356  0.85991449     0.17200
O2498       O  0.85145639  0.78403180  0.82233803    -0.59800
H2499       H  0.83135845  0.77824574  0.81688077     0.44200
H2500       H  0.87572743  0.78159522  0.99118919     0.44200
C2501       C  0.91409184  0.66045466  0.91811187    -0.04900
C2502       C  0.92775776  0.64813019  0.93853371    -0.32300
C2503       C  0.94825021  0.64387783  0.91998198     0.36900
C2504       C  0.95566946  0.65228666  0.88060202    -0.05300
C2505       C  0.94239531  0.66488960  0.86007560    -0.32200
C2506       C  0.92155909  0.66888029  0.87851304     0.36800
H2507       H  0.92239904  0.64153831  0.96897480     0.17200
O2508       O  0.96186250  0.63263010  0.94107634    -0.59700
H2509       H  0.94851732  0.67199984  0.82996880     0.17200
O2510       O  0.90916654  0.68159948  0.85790393    -0.59800
H2511       H  0.92031843  0.70230353  0.86507852     0.44200
H2512       H  0.95007738  0.61151045  0.93735940     0.44200
C2513       C  0.89917656  0.74751188  0.08814534    -0.04900
C2514       C  0.90058180  0.77383167  0.08048216    -0.32300
C2515       C  0.92296072  0.79961827  0.09543845     0.36900
C2516       C  0.94396094  0.79915544  0.11914138    -0.05300
C2517       C  0.94090187  0.77258173  0.12998977    -0.32200
C2518       C  0.91887336  0.74687666  0.11435160     0.36800
H2519       H  0.88552747  0.77468450  0.06042951     0.17200
O2520       O  0.92576360  0.82517048  0.08323248    -0.59700
H2521       H  0.95664277  0.77189619  0.14883709     0.17200
O2522       O  0.91700868  0.72131409  0.12432317    -0.59800
H2523       H  0.93143243  0.72003099  0.10790492     0.44200
H2524       H  0.91227720  0.82801038  0.09968205     0.44200
C2525       C  0.83668925  0.54773587  0.13815915    -0.04900
C2526       C  0.85994308  0.56317598  0.11292976    -0.32300
C2527       C  0.86019366  0.58311698  0.08631532     0.36900
C2528       C  0.83662998  0.58721266  0.08395163    -0.05300
C2529       C  0.81381714  0.57244352  0.10982234    -0.32200
C2530       C  0.81397695  0.55331815  0.13728913     0.36800
H2531       H  0.87739433  0.55891290  0.11260173     0.17200
O2532       O  0.88272473  0.59716398  0.06110702    -0.59700
H2533       H  0.79596409  0.57609237  0.10913997     0.17200
O2534       O  0.79146478  0.53963606  0.16261426    -0.59800
H2535       H  0.79748785  0.55144271  0.18712775     0.44200
H2536       H  0.89731692  0.61384978  0.07647389     0.44200
C2537       C  0.95767068  0.95008062  0.79347787    -0.04900
C2538       C  0.94240875  0.95575917  0.82193809    -0.32300
C2539       C  0.91831278  0.93319839  0.83980509     0.36900
C2540       C  0.90928197  0.90432701  0.82940489    -0.05300
C2541       C  0.92584288  0.89887577  0.80260702    -0.32200
C2542       C  0.94996301  0.92141291  0.78502989     0.36800
H2543       H  0.94841007  0.97778369  0.82901713     0.17200
O2544       O  0.90427851  0.93960232  0.86816890    -0.59700
H2545       H  0.91969408  0.87702923  0.79424996     0.17200
O2546       O  0.96588444  0.91537590  0.75937682    -0.59800
H2547       H  0.95304251  0.90447014  0.73709206     0.44200
H2548       H  0.89546685  0.94926825  0.85402597     0.44200
C2549       C  0.49777947  0.54598622  0.79505666    -0.04900
C2550       C  0.51864220  0.56325079  0.82269621    -0.32300
C2551       C  0.51909333  0.58730308  0.83956141     0.36900
C2552       C  0.49848915  0.59458229  0.82838250    -0.05300
C2553       C  0.97503016  0.57567441  0.80339447    -0.32200
C2554       C  0.97377501  0.55094881  0.78754261     0.36800
H2555       H  0.53538116  0.55896093  0.82987885     0.17200
O2556       O  0.54015685  0.60381954  0.86620530    -0.59700
H2557       H  0.95921336  0.58106031  0.79424871     0.17200
O2558       O  0.95197740  0.53372855  0.76224968    -0.59800
H2559       H  0.93955885  0.51609326  0.77740550     0.44200
H2560       H  0.53142418  0.59720814  0.89253302     0.44200
C2561       C  0.54999108  0.99507000  0.78925701    -0.04900
C2562       C  0.55714342  0.97477760  0.77555264    -0.32300
C2563       C  0.58128867  0.97480607  0.78960610     0.36900
C2564       C  0.60145746  0.49845159  0.81604661    -0.05300
C2565       C  0.59764646  0.52208901  0.82363118    -0.32200
C2566       C  0.57363099  0.52265998  0.80974876     0.36800
H2567       H  0.54487391  0.95988835  0.75212037     0.17200
O2568       O  0.58923673  0.95683372  0.77215489    -0.59700
H2569       H  0.61353583  0.54060184  0.83996781     0.17200
O2570       O  0.57225298  0.54723022  0.81438883    -0.59800
H2571       H  0.57194499  0.55002975  0.84337351     0.44200
H2572       H  0.60179529  0.96799361  0.75004371     0.44200
C2573       C  0.95227142  0.95348746  0.70503904    -0.04900
C2574       C  0.92513332  0.94503340  0.72017672    -0.32300
C2575       C  0.90090449  0.92058940  0.70576728     0.36900
C2576       C  0.90304454  0.90517898  0.67336867    -0.05300
C2577       C  0.92951274  0.91585809  0.65482604    -0.32200
C2578       C  0.95408925  0.93979650  0.67038479     0.36800
H2579       H  0.92282368  0.95641757  0.74509673     0.17200
O2580       O  0.87573610  0.91064450  0.72564502    -0.59700
H2581       H  0.93128489  0.90526898  0.62851966     0.17200
O2582       O  0.97959855  0.94961428  0.65156524    -0.59800
H2583       H  0.98122787  0.93244928  0.64534255     0.44200
H2584       H  0.86959835  0.92485694  0.72061543     0.44200
C2585       C  0.50181560  0.55030538  0.70639817    -0.04900
C2586       C  0.52064232  0.57896454  0.71767356    -0.32300
C2587       C  0.51879718  0.60178134  0.70113695     0.36900
C2588       C  0.49853103  0.59645577  0.67135338    -0.05300
C2589       C  0.97945872  0.56644317  0.65837649    -0.32200
C2590       C  0.98094197  0.54378752  0.67632069     0.36800
H2591       H  0.53628342  0.58367154  0.74063390     0.17200
O2592       O  0.53557402  0.62898590  0.71629687    -0.59700
H2593       H  0.96398645  0.56149869  0.63508394     0.17200
O2594       O  0.96225160  0.51605187  0.66472999    -0.59800
H2595       H  0.94571217  0.50945446  0.68257359     0.44200
H2596       H  0.55521528  0.63483974  0.70803882     0.44200
C2597       C  0.55252500  0.50385051  0.70227496    -0.04900
C2598       C  0.57940067  0.52848161  0.70668790    -0.32300
C2599       C  0.60390618  0.52894291  0.69286404     0.36900
C2600       C  0.60168384  0.50472056  0.67284989    -0.05300
C2601       C  0.57716527  0.98521010  0.66182190    -0.32200
C2602       C  0.55252288  0.98397916  0.67646187     0.36800
H2603       H  0.58159299  0.54673267  0.72348994     0.17200
O2604       O  0.62994885  0.55207520  0.70234327    -0.59700
H2605       H  0.57502571  0.96817850  0.64227528     0.17200
O2606       O  0.52678118  0.96050270  0.66760032    -0.59800
H2607       H  0.52413942  0.94565677  0.68699305     0.44200
H2608       H  0.63160946  0.56821759  0.68634584     0.44200
loop_ 
_geom_bond_atom_site_label_1 
_geom_bond_atom_site_label_2 
_geom_bond_distance 
_geom_bond_site_symmetry_2 
_ccdc_geom_bond_type 
C1            H2   1.110       .  S
C1            C6   1.545   1_565  S
C1         C1963   1.535       .  S
C1          C657   1.533       .  S
C3            H4   1.109       .  S
C3           C10   1.544       .  S
C3         C1965   1.537       .  S
C3         C1312   1.545   1_455  S
C5          C653   1.533       .  S
C5            C8   1.384       .  D
C5          C581   1.483       .  S
C6            C9   1.376       .  D
C6         C1897   1.492       .  S
C7         C1957   1.533       .  S
C7           C10   1.371       .  D
C7          C605   1.493       .  S
C8         C1307   1.549       .  S
C8          C617   1.509       .  S
C9         C1959   1.534       .  S
C9         C1933   1.489       .  S
C10        C1293   1.484       .  S
O11          C27   1.277       .  A
O11         Zn17   2.022       .  S
C12          O28   1.270       .  A
C12          O25   1.272       .  A
C12         C524   1.468       .  S
O13          C26   1.275       .  A
O13         Cd20   2.076       .  S
O14          C32   1.272       .  A
O14         Cd23   2.038   1_556  S
O15          C29   1.277       .  A
O15         Cd19   2.079       .  S
O16          C27   1.273       .  A
O16         Cd19   2.056       .  S
Zn17         O28   1.998       .  S
Zn17         O30   2.007   1_554  S
Zn17         O22   1.922   1_554  S
O18          C29   1.270       .  A
O18         Cd23   2.040       .  S
Cd19         O21   2.066   1_554  S
Cd19         O22   1.979   1_554  S
Cd20         O24   2.071       .  S
Cd20         O33   2.072       .  S
Cd20         O22   1.996       .  S
O21          C31   1.276       .  A
O22         Cd23   1.975   1_556  S
Cd23         O25   2.045       .  S
O24          C31   1.276       .  A
C26          O30   1.275       .  A
C26         C509   1.468       .  S
C27         C572   1.474       .  S
C29         C557   1.473       .  S
C31         C545   1.479       .  S
C32          O33   1.275       .  A
C32         C536   1.471       .  S
C34         C584   1.490       .  S
C34          C35   1.414       .  A
C34          C39   1.409       .  A
C35          C36   1.404       .  A
C35          H40   1.082       .  S
C36         C500   1.472       .  S
C36          C37   1.394       .  A
C37          C38   1.393       .  A
C37          H41   1.085       .  S
C38         C533   1.463       .  S
C38          C39   1.396       .  A
C39          H42   1.084       .  S
O43          C59   1.271       .  A
O43         Zn49   2.016       .  S
C44          O60   1.277       .  A
C44          O57   1.274       .  A
C44         C488   1.475       .  S
O45          C58   1.277       .  A
O45         Cd52   2.069       .  S
O46          C64   1.276       .  A
O46         Cd55   2.071   1_556  S
O47          C61   1.273       .  A
O47         Cd51   2.063       .  S
O48          C59   1.276       .  A
O48         Cd51   2.080       .  S
Zn49         O60   2.014       .  S
Zn49         O62   2.014   1_554  S
Zn49         O54   1.920   1_554  S
O50          C61   1.277       .  A
O50         Cd55   2.070       .  S
Cd51         O53   2.058   1_554  S
Cd51         O54   1.976   1_554  S
Cd52         O56   2.087       .  S
Cd52         O65   2.085       .  S
Cd52         O54   2.000       .  S
O53          C63   1.274       .  A
O54         Cd55   1.975   1_556  S
Cd55         O57   2.067       .  S
O56          C63   1.277       .  A
C58          O62   1.277       .  A
C58         C461   1.479       .  S
C59         C473   1.477       .  S
C61         C449   1.463       .  S
C63         C440   1.472       .  S
C64          O65   1.277       .  A
C64         C497   1.484       .  S
C66         C428   1.484       .  S
C66          C67   1.413       .  A
C66          C71   1.407       .  A
C67          C68   1.402       .  A
C67          H72   1.083       .  S
C68         C452   1.473       .  S
C68          C69   1.394       .  A
C69          C70   1.394       .  A
C69          H73   1.085       .  S
C70         C521   1.469       .  S
C70          C71   1.397       .  A
C71          H74   1.082       .  S
C75         C608   1.499       .  S
C75          C76   1.416   1_565  A
C75         C732   1.413       .  A
C76          C77   1.403       .  A
C76          H81   1.082       .  S
C77         C512   1.475       .  S
C77          C78   1.393       .  A
C78         C731   1.393   1_545  A
C78          H82   1.085       .  S
C79         C464   1.471       .  S
C79          C80   1.404       .  A
C79         C730   1.393       .  A
C80         C727   1.414       .  A
C80          H83   1.082       .  S
C84         C413   1.496       .  S
C84          C85   1.418   1_655  A
C84        C1393   1.410       .  A
C85          C86   1.411       .  A
C85          H90   1.082       .  S
C86         C476   1.489       .  S
C86          C87   1.398   1_455  A
C87        C1392   1.393       .  A
C87          H91   1.085       .  S
C88         C560   1.479       .  S
C88          C89   1.400       .  A
C88        C1391   1.393       .  A
C89        C1388   1.411       .  A
C89          H92   1.081       .  S
C93         C596   1.494   1_455  S
C93          C98   1.411       .  A
C93        C1398   1.408   1_455  A
C94          C95   1.402       .  A
C94        C1397   1.411       .  A
C94          H99   1.083       .  S
C95         C548   1.472       .  S
C95        C1400   1.395       .  A
C96          C97   1.400       .  A
C96        C1399   1.398   1_455  A
C96         H100   1.084       .  S
C97         C437   1.480       .  S
C97          C98   1.405       .  A
C98         H101   1.082       .  S
C102        C401   1.489       .  S
C102        C103   1.410       .  A
C102        C759   1.412       .  A
C103        C104   1.402       .  A
C103        H108   1.079       .  S
C104        C485   1.480       .  S
C104        C105   1.396       .  A
C105        C758   1.397       .  A
C105        H109   1.084       .  S
C106        C569   1.488       .  S
C106        C107   1.407       .  A
C106        C757   1.396   1_545  A
C107        C754   1.412   1_545  A
C107        H110   1.076       .  S
O111        C127   1.275       .  A
O111       Zn117   2.021       .  S
C112        O128   1.277       .  A
C112        O125   1.273       .  A
C112        C380   1.470       .  S
O113        C126   1.275       .  A
O113       Cd120   2.083       .  S
O114        C132   1.278       .  A
O114       Cd123   2.072       .  S
O115        C129   1.273       .  A
O115       Cd119   2.060       .  S
O116        C127   1.276       .  A
O116       Cd119   2.061       .  S
Zn117       O128   2.021       .  S
Zn117       O130   2.004       .  S
Zn117       O122   1.918       .  S
O118        C129   1.279       .  A
O118       Cd123   2.090       .  S
Cd119       O121   2.060       .  S
Cd119       O122   1.973       .  S
Cd120       O124   2.074       .  S
Cd120       O133   2.083       .  S
Cd120       O122   1.997       .  S
O121        C131   1.276       .  A
O122       Cd123   1.982       .  S
Cd123       O125   2.059       .  S
O124        C131   1.277       .  A
C126        O130   1.273       .  A
C126        C329   1.482       .  S
C127        C341   1.476       .  S
C129        C365   1.485       .  S
C131        C356   1.477       .  S
C132        O133   1.278       .  A
C132        C389   1.485       .  S
C134        C620   1.493       .  S
C134        C135   1.414       .  A
C134        C139   1.408       .  A
C135        C136   1.408       .  A
C135        H140   1.083       .  S
C136        C392   1.477       .  S
C136        C137   1.398       .  A
C137        C138   1.396       .  A
C137        H141   1.085       .  S
C138        C317   1.473       .  S
C138        C139   1.401       .  A
C139        H142   1.083       .  S
O143        C159   1.276       .  A
O143       Zn149   2.017       .  S
C144        O160   1.272       .  A
C144        O157   1.275       .  A
C144        C269   1.471       .  S
O145        C158   1.277       .  A
O145       Cd152   2.076       .  S
O146        C164   1.273       .  A
O146       Cd155   2.047       .  S
O147        C161   1.278       .  A
O147       Cd151   2.074       .  S
O148        C159   1.272       .  A
O148       Cd151   2.056       .  S
Zn149       O160   2.018       .  S
Zn149       O162   2.007       .  S
Zn149       O154   1.917       .  S
O150        C161   1.275       .  A
O150       Cd155   2.069       .  S
Cd151       O153   2.057       .  S
Cd151       O154   1.966       .  S
Cd152       O156   2.085       .  S
Cd152       O165   2.086       .  S
Cd152       O154   1.999       .  S
O153        C163   1.275       .  A
O154       Cd155   1.961       .  S
Cd155       O157   2.060       .  S
O156        C163   1.276       .  A
C158        O162   1.277       .  A
C158        C257   1.486       .  S
C159        C305   1.473       .  S
C161        C293   1.477       .  S
C163        C281   1.469       .  S
C164        O165   1.277       .  A
C164        C320   1.472       .  S
C166        C644   1.497       .  S
C166        C171   1.411       .  A
C166        C819   1.414   1_545  A
C167        C168   1.401       .  A
C167        C818   1.412       .  A
C167        H172   1.083       .  S
C168        C284   1.474       .  S
C168        C821   1.397       .  A
C169        C170   1.393   1_565  A
C169        C820   1.396       .  A
C169        H173   1.085       .  S
C170        C353   1.469       .  S
C170        C171   1.402       .  A
C171        H174   1.082       .  S
C175        C632   1.495       .  S
C175        C180   1.413   1_655  A
C175       C1480   1.416       .  A
C176        C177   1.404       .  A
C176       C1479   1.416       .  A
C176        H181   1.083       .  S
C177        C332   1.471       .  S
C177       C1482   1.392       .  A
C178        C179   1.393   1_655  A
C178       C1481   1.393       .  A
C178        H182   1.085       .  S
C179        C260   1.476       .  S
C179        C180   1.401       .  A
C180        H183   1.082       .  S
C184        C245   1.502       .  S
C184        C185   1.416       .  A
C184       C1493   1.414       .  A
C185        C186   1.406       .  A
C185        H190   1.081       .  S
C186        C377   1.482       .  S
C186        C187   1.395       .  A
C187       C1492   1.393       .  A
C187        H191   1.084       .  S
C188        C308   1.479       .  S
C188        C189   1.402       .  A
C188       C1491   1.394       .  A
C189       C1488   1.414       .  A
C189        H192   1.081       .  S
C193        C236   1.497       .  S
C193        C194   1.417       .  A
C193        C198   1.412       .  A
C194        C195   1.411       .  A
C194        H199   1.082       .  S
C195        C368   1.492       .  S
C195        C196   1.397       .  A
C196        C197   1.396       .  A
C196        H200   1.084       .  S
C197        C272   1.481       .  S
C197        C198   1.403       .  A
C198        H201   1.083       .  S
C202        C221   1.484       .  S
C202        C203   1.406   1_565  A
C202        C859   1.411       .  A
C203        C204   1.399       .  A
C203        H208   1.084       .  S
C204        C344   1.479       .  S
C204        C205   1.397       .  A
C205        C858   1.401   1_545  A
C205        H209   1.084       .  S
C206        C296   1.486       .  S
C206        C207   1.410       .  A
C206        C857   1.399       .  A
C207        C854   1.411       .  A
C207        H210   1.083       .  S
C211        H212   1.110       .  S
C211        C217   1.529       .  S
C211        C216   1.509       .  S
C211       C2171   1.535       .  S
C213        H214   1.107       .  S
C213        C219   1.571       .  S
C213        C220   1.552       .  S
C213       C2174   1.548       .  S
C215       C2167   1.532   1_545  S
C215        C218   1.379       .  D
C215        C425   1.480       .  S
C216        C219   1.322       .  D
C216        C404   1.372       .  S
C217        C220   1.383       .  D
C217        C416   1.498       .  S
C218       C2169   1.549   1_455  S
C218        C233   1.493       .  S
C219        C224   1.546       .  S
C220        C248   1.489       .  S
C221        C222   1.402       .  A
C221        C878   1.375   1_565  A
C222        C223   1.511       .  A
C222        H227   1.084       .  S
C223        C876   1.567   1_565  A
C223        O228   2.175       .  S
C224        C225   1.410       .  A
C224        C875   1.572       .  A
C225        C226   1.371       .  A
C225        H229   1.079       .  S
C226        C873   1.374       .  A
C226        O230   1.373       .  S
O228        H232   1.021   1_565  S
O230        H231   0.993       .  S
C233        C234   1.403       .  A
C233        C238   1.409       .  A
C234        C235   1.408       .  A
C234        H239   1.084       .  S
C235        C236   1.414       .  A
C235        O240   1.372       .  S
C236        C237   1.407       .  A
C237        C238   1.405       .  A
C237        H241   1.083       .  S
C238        O242   1.374       .  S
O240        H244   0.992       .  S
O242        H243   0.992       .  S
C245        C246   1.414       .  A
C245       C1554   1.416       .  A
C246        C247   1.406       .  A
C246        H251   1.082       .  S
C247        C248   1.403       .  A
C247        O252   1.371       .  S
C248       C1553   1.402       .  A
C249        C250   1.397       .  A
C249       C1552   1.402       .  A
C249        H253   1.084       .  S
C250       C1549   1.416       .  A
C250        O254   1.373       .  S
O252        H256   0.991       .  S
O254        H255   0.992       .  S
C257        C258   1.407       .  A
C257        C262   1.415       .  A
C258        C259   1.392       .  A
C258        H263   1.083       .  S
C259        C260   1.406       .  A
C259        O264   1.372       .  S
C260        C261   1.402       .  A
C261        C262   1.404       .  A
C261        H265   1.084       .  S
C262        O266   1.371       .  S
O264        H268   0.992       .  S
O266        H267   0.992       .  S
C269        C270   1.399       .  A
C269        C274   1.409       .  A
C270        C271   1.394       .  A
C270        H275   1.084       .  S
C271        C272   1.410       .  A
C271        O276   1.374       .  S
C272        C273   1.405       .  A
C273        C274   1.405       .  A
C273        H277   1.083       .  S
C274        O278   1.371       .  S
O276        H280   0.992       .  S
O278        H279   0.992       .  S
C281        C282   1.402       .  A
C281        C286   1.407       .  A
C282        C283   1.404       .  A
C282        H287   1.083       .  S
C283        C284   1.408       .  A
C283        O288   1.372       .  S
C284        C285   1.401       .  A
C285        C286   1.396       .  A
C285        H289   1.084       .  S
C286        O290   1.372       .  S
O288        H292   0.991       .  S
O290        H291   0.992       .  S
C293        C294   1.400       .  A
C293        C298   1.411       .  A
C294        C295   1.396       .  A
C294        H299   1.084       .  S
C295        C296   1.414       .  A
C295        O300   1.374       .  S
C296        C297   1.404       .  A
C297        C298   1.405       .  A
C297        H301   1.083       .  S
C298        O302   1.371       .  S
O300        H304   0.992       .  S
O302        H303   0.992       .  S
C305        C306   1.401       .  A
C305        C310   1.411       .  A
C306        C307   1.396       .  A
C306        H311   1.084       .  S
C307        C308   1.411       .  A
C307        O312   1.372       .  S
C308        C309   1.402       .  A
C309        C310   1.399       .  A
C309        H313   1.083       .  S
C310        O314   1.372       .  S
O312        H316   0.992       .  S
O314        H315   0.992       .  S
C317        C318   1.399       .  A
C317        C322   1.409       .  A
C318        C319   1.394       .  A
C318        H323   1.084       .  S
C319        C320   1.409       .  A
C319        O324   1.373       .  S
C320        C321   1.404       .  A
C321        C322   1.403       .  A
C321        H325   1.083       .  S
C322        O326   1.371       .  S
O324        H328   0.992       .  S
O326        H327   0.992       .  S
C329        C330   1.407       .  A
C329        C334   1.413       .  A
C330        C331   1.404       .  A
C330        H335   1.083       .  S
C331        C332   1.407       .  A
C331        O336   1.371       .  S
C332        C333   1.399       .  A
C333        C334   1.396       .  A
C333        H337   1.084       .  S
C334        O338   1.373       .  S
O336        H340   0.992       .  S
O338        H339   0.993       .  S
C341        C342   1.405       .  A
C341        C346   1.408       .  A
C342        C343   1.401       .  A
C342        H347   1.084       .  S
C343        C344   1.409       .  A
C343        O348   1.372       .  S
C344        C345   1.403       .  A
C345        C346   1.398       .  A
C345        H349   1.084       .  S
C346        O350   1.372       .  S
O348        H352   0.991       .  S
O350        H351   0.992       .  S
C353        C354   1.399       .  A
C353        C358   1.405       .  A
C354        C355   1.399       .  A
C354        H359   1.084       .  S
C355        C356   1.413       .  A
C355        O360   1.372       .  S
C356        C357   1.405       .  A
C357        C358   1.399       .  A
C357        H361   1.083       .  S
C358        O362   1.371       .  S
O360        H364   0.992       .  S
O362        H363   0.991       .  S
C365        C366   1.408       .  A
C365        C370   1.407       .  A
C366        C367   1.403       .  A
C366        H371   1.084       .  S
C367        C368   1.409       .  A
C367        O372   1.371       .  S
C368        C369   1.410       .  A
C369        C370   1.402       .  A
C369        H373   1.084       .  S
C370        O374   1.372       .  S
O372        H376   0.991       .  S
O374        H375   0.992       .  S
C377        C378   1.406       .  A
C377        C382   1.408       .  A
C378        C379   1.394       .  A
C378        H383   1.084       .  S
C379        C380   1.405       .  A
C379        O384   1.373       .  S
C380        C381   1.404       .  A
C381        C382   1.403       .  A
C381        H385   1.083       .  S
C382        O386   1.371       .  S
O384        H388   0.992       .  S
O386        H387   0.992       .  S
C389        C390   1.407       .  A
C389        C394   1.412       .  A
C390        C391   1.399       .  A
C390        H395   1.084       .  S
C391        C392   1.406       .  A
C391        O396   1.372       .  S
C392        C393   1.403       .  A
C393        C394   1.405       .  A
C393        H397   1.083       .  S
C394        O398   1.371       .  S
O396        H400   0.992       .  S
O398        H399   0.992       .  S
C401        C402   1.948       .  A
C401       C1058   1.928       .  A
C402        C403   1.914       .  A
C402        H407   1.080       .  S
C403        C404   1.926       .  A
C403        O408   1.369       .  S
C404       C1057   1.938       .  A
C405        C406   1.920       .  A
C405       C1056   1.939   1_545  A
C405        H409   1.081       .  S
C406       C1053   1.928   1_545  A
C406        O410   1.367       .  S
O408        H412   0.990       .  S
O410        H411   0.990       .  S
C413        C414   1.409   1_655  A
C413       C1722   1.415       .  A
C414        C415   1.405       .  A
C414        H419   1.083       .  S
C415       C1720   1.409   1_455  A
C415        O420   1.371       .  S
C416        C417   1.404       .  A
C416       C1719   1.410       .  A
C417        C418   1.399       .  A
C417        H421   1.083       .  S
C418       C1717   1.413       .  A
C418        O422   1.373       .  S
O420        H424   0.992       .  S
O422        H423   0.992       .  S
C425        C426   1.401       .  A
C425        C430   1.405       .  A
C426        C427   1.397       .  A
C426        H431   1.083       .  S
C427        C428   1.413       .  A
C427        O432   1.373       .  S
C428        C429   1.405       .  A
C429        C430   1.398       .  A
C429        H433   1.083       .  S
C430        O434   1.371       .  S
O432        H436   0.992       .  S
O434        H435   0.992       .  S
C437        C438   1.402       .  A
C437        C442   1.410       .  A
C438        C439   1.397       .  A
C438        H443   1.084       .  S
C439        C440   1.408       .  A
C439        O444   1.372       .  S
C440        C441   1.402       .  A
C441        C442   1.405       .  A
C441        H445   1.084       .  S
C442        O446   1.372       .  S
O444        H448   0.992       .  S
O446        H447   0.992       .  S
C449        C450   1.398       .  A
C449        C454   1.406       .  A
C450        C451   1.394       .  A
C450        H455   1.084       .  S
C451        C452   1.409       .  A
C451        O456   1.373       .  S
C452        C453   1.403       .  A
C453        C454   1.403       .  A
C453        H457   1.083       .  S
C454        O458   1.371       .  S
O456        H460   0.992       .  S
O458        H459   0.992       .  S
C461        C462   1.406       .  A
C461        C466   1.413       .  A
C462        C463   1.401       .  A
C462        H467   1.083       .  S
C463        C464   1.406       .  A
C463        O468   1.372       .  S
C464        C465   1.399       .  A
C465        C466   1.397       .  A
C465        H469   1.084       .  S
C466        O470   1.372       .  S
O468        H472   0.992       .  S
O470        H471   0.992       .  S
C473        C474   1.408       .  A
C473        C478   1.404       .  A
C474        C475   1.408       .  A
C474        H479   1.083       .  S
C475        C476   1.409       .  A
C475        O480   1.371       .  S
C476        C477   1.407       .  A
C477        C478   1.395       .  A
C477        H481   1.084       .  S
C478        O482   1.372       .  S
O480        H484   0.992       .  S
O482        H483   0.992       .  S
C485        C486   1.405       .  A
C485        C490   1.408       .  A
C486        C487   1.401       .  A
C486        H491   1.084       .  S
C487        C488   1.410       .  A
C487        O492   1.372       .  S
C488        C489   1.403       .  A
C489        C490   1.398       .  A
C489        H493   1.084       .  S
C490        O494   1.373       .  S
O492        H496   0.992       .  S
O494        H495   0.992       .  S
C497        C498   1.406       .  A
C497        C502   1.413       .  A
C498        C499   1.396       .  A
C498        H503   1.084       .  S
C499        C500   1.405       .  A
C499        O504   1.372       .  S
C500        C501   1.401       .  A
C501        C502   1.405       .  A
C501        H505   1.084       .  S
C502        O506   1.371       .  S
O504        H508   0.991       .  S
O506        H507   0.991       .  S
C509        C510   1.402       .  A
C509        C514   1.404       .  A
C510        C511   1.397       .  A
C510        H515   1.084       .  S
C511        C512   1.407       .  A
C511        O516   1.372       .  S
C512        C513   1.406       .  A
C513        C514   1.402       .  A
C513        H517   1.084       .  S
C514        O518   1.371       .  S
O516        H520   0.992       .  S
O518        H519   0.992       .  S
C521        C522   1.402       .  A
C521        C526   1.407       .  A
C522        C523   1.392       .  A
C522        H527   1.084       .  S
C523        C524   1.407       .  A
C523        O528   1.372       .  S
C524        C525   1.405       .  A
C525        C526   1.398       .  A
C525        H529   1.084       .  S
C526        O530   1.372       .  S
O528        H532   0.992       .  S
O530        H531   0.991       .  S
C533        C534   1.397       .  A
C533        C538   1.405       .  A
C534        C535   1.392       .  A
C534        H539   1.084       .  S
C535        C536   1.412       .  A
C535        O540   1.372       .  S
C536        C537   1.404       .  A
C537        C538   1.400       .  A
C537        H541   1.083       .  S
C538        O542   1.371       .  S
O540        H544   0.991       .  S
O542        H543   0.992       .  S
C545        C546   1.405       .  A
C545        C550   1.412       .  A
C546        C547   1.396       .  A
C546        H551   1.084       .  S
C547        C548   1.404       .  A
C547        O552   1.372       .  S
C548        C549   1.402       .  A
C549        C550   1.402       .  A
C549        H553   1.084       .  S
C550        O554   1.372       .  S
O552        H556   0.992       .  S
O554        H555   0.992       .  S
C557        C558   1.406       .  A
C557        C562   1.405       .  A
C558        C559   1.398       .  A
C558        H563   1.084       .  S
C559        C560   1.407       .  A
C559        O564   1.372       .  S
C560        C561   1.406       .  A
C561        C562   1.398       .  A
C561        H565   1.084       .  S
C562        O566   1.372       .  S
O564        H568   0.992       .  S
O566        H567   0.992       .  S
C569        C570   1.406       .  A
C569        C574   1.413       .  A
C570        C571   1.401       .  A
C570        H575   1.083       .  S
C571        C572   1.409       .  A
C571        O576   1.372       .  S
C572        C573   1.401       .  A
C573        C574   1.397       .  A
C573        H577   1.084       .  S
C574        O578   1.372       .  S
O576        H580   0.992       .  S
O578        H579   0.991       .  S
C581        C582   1.401       .  A
C581        C586   1.406       .  A
C582        C583   1.403       .  A
C582        H587   1.084       .  S
C583        C584   1.413       .  A
C583        O588   1.372       .  S
C584        C585   1.407       .  A
C585        C586   1.398       .  A
C585        H589   1.083       .  S
C586        O590   1.374       .  S
O588        H592   0.992       .  S
O590        H591   0.991       .  S
C593       C1310   1.491   1_655  S
C593        C594   1.399   1_655  A
C593       C1902   1.409       .  A
C594        C595   1.401       .  A
C594        H599   1.074       .  S
C595        C596   1.414   1_455  A
C595        O600   1.371       .  S
C596       C1901   1.407       .  A
C597        C598   1.401       .  A
C597       C1900   1.409       .  A
C597        H601   1.082       .  S
C598       C1897   1.409       .  A
C598        O602   1.372       .  S
O600        H604   0.991       .  S
O602        H603   0.991       .  S
C605        C606   1.404       .  A
C605       C1262   1.403       .  A
C606        C607   1.403       .  A
C606        H611   1.083       .  S
C607       C1260   1.416       .  A
C607        O612   1.371       .  S
C608        C609   1.409   1_565  A
C608       C1259   1.415       .  A
C609        C610   1.402       .  A
C609        H613   1.082       .  S
C610       C1257   1.403   1_545  A
C610        O614   1.369       .  S
O612        H616   0.991       .  S
O614        H615   0.992       .  S
C617        C618   1.409       .  A
C617        C622   1.411       .  A
C618        C619   1.400       .  A
C618        H623   1.082       .  S
C619        C620   1.409       .  A
C619        O624   1.373       .  S
C620        C621   1.405       .  A
C621        C622   1.411       .  A
C621        H625   1.083       .  S
C622        O626   1.371       .  S
O624        H628   0.992       .  S
O626        H627   0.992       .  S
C629       C1313   1.492       .  S
C629        C630   1.403       .  A
C629       C1938   1.407   1_455  A
C630        C631   1.401       .  A
C630        H635   1.083       .  S
C631        C632   1.413   1_455  A
C631        O636   1.373       .  S
C632       C1937   1.409       .  A
C633        C634   1.402       .  A
C633       C1936   1.409       .  A
C633        H637   1.083       .  S
C634       C1933   1.407       .  A
C634        O638   1.371       .  S
O636        H640   0.992       .  S
O638        H639   0.992       .  S
C641        C662   1.485       .  S
C641        C642   1.402       .  A
C641       C1298   1.403   1_545  A
C642        C643   1.403       .  A
C642        H647   1.084       .  S
C643        C644   1.415       .  A
C643        O648   1.372       .  S
C644       C1297   1.408   1_545  A
C645        C646   1.398       .  A
C645       C1296   1.407       .  A
C645        H649   1.083       .  S
C646       C1293   1.402       .  A
C646        O650   1.367       .  S
O648        H652   0.992       .  S
O650        H651   0.991       .  S
C653        H654   1.111       .  S
C653       C1311   1.532       .  S
C653        C658   1.540       .  S
C655        H656   1.110       .  S
C655       C1313   1.538       .  S
C655       C1964   1.544   1_445  S
C655        C662   1.543       .  S
C657        C660   1.384       .  D
C657       C1233   1.490       .  S
C658        C661   1.379       .  D
C658       C2549   1.487       .  S
C659       C1305   1.535       .  S
C659        C662   1.371       .  D
C659       C1257   1.489   1_545  S
C660       C1959   1.549   1_565  S
C660       C1269   1.506       .  S
C661       C1307   1.540       .  S
C661       C2585   1.500       .  S
O663        C679   1.277       .  A
O663       Zn669   2.022       .  S
C664        O680   1.270       .  A
C664        O677   1.271       .  A
C664       C1176   1.465       .  S
O665        C678   1.277       .  A
O665       Cd672   2.086       .  S
O666        C684   1.273       .  A
O666       Cd675   2.042   1_556  S
O667        C681   1.276       .  A
O667       Cd671   2.077       .  S
O668        C679   1.272       .  A
O668       Cd671   2.055       .  S
Zn669       O680   1.992       .  S
Zn669       O682   2.008   1_554  S
Zn669       O674   1.923   1_554  S
O670        C681   1.270       .  A
O670       Cd675   2.047       .  S
Cd671       O673   2.056   1_554  S
Cd671       O674   1.979   1_554  S
Cd672       O676   2.072       .  S
Cd672       O685   2.084       .  S
Cd672       O674   1.999       .  S
O673        C683   1.275       .  A
O674       Cd675   1.973   1_556  S
Cd675       O677   2.040       .  S
O676        C683   1.276       .  A
C678        O682   1.275       .  A
C678       C1161   1.472       .  S
C679       C1224   1.474       .  S
C681       C1209   1.474       .  S
C683       C1197   1.470       .  S
C684        O685   1.277       .  A
C684       C1188   1.480       .  S
C686       C1236   1.497       .  S
C686        C687   1.416       .  A
C686        C691   1.413       .  A
C687        C688   1.404       .  A
C687        H692   1.081       .  S
C688       C1152   1.473       .  S
C688        C689   1.393       .  A
C689        C690   1.394       .  A
C689        H693   1.085       .  S
C690       C1185   1.470       .  S
C690        C691   1.401       .  A
C691        H694   1.083       .  S
O695        C711   1.270       .  A
O695       Zn701   2.007       .  S
C696        O712   1.276       .  A
C696        O709   1.275       .  A
C696       C1140   1.477       .  S
O697        C710   1.278       .  A
O697       Cd704   2.075       .  S
O698        C716   1.276       .  A
O698       Cd707   2.065   1_556  S
O699        C713   1.273       .  A
O699       Cd703   2.061       .  S
O700        C711   1.276       .  A
O700       Cd703   2.075       .  S
Zn701       O712   2.011       .  S
Zn701       O714   2.008   1_554  S
Zn701       O706   1.916   1_554  S
O702        C713   1.277       .  A
O702       Cd707   2.073       .  S
Cd703       O705   2.059   1_554  S
Cd703       O706   1.971   1_554  S
Cd704       O708   2.086       .  S
Cd704       O717   2.086       .  S
Cd704       O706   1.997       .  S
O705        C715   1.275       .  A
O706       Cd707   1.971   1_556  S
Cd707       O709   2.072       .  S
O708        C715   1.276       .  A
C710        O714   1.276       .  A
C710       C1113   1.487       .  S
C711       C1125   1.473       .  S
C713       C1101   1.465       .  S
C715       C1092   1.476       .  S
C716        O717   1.277       .  A
C716       C1149   1.482       .  S
C718       C1080   1.484       .  S
C718        C719   1.413       .  A
C718        C723   1.406       .  A
C719        C720   1.402       .  A
C719        H724   1.083       .  S
C720       C1104   1.475       .  S
C720        C721   1.394       .  A
C721        C722   1.393       .  A
C721        H725   1.085       .  S
C722       C1173   1.468       .  S
C722        C723   1.396       .  A
C723        H726   1.082       .  S
C727       C1260   1.502       .  S
C727        C728   1.417       .  A
C728        C729   1.404       .  A
C728        H733   1.082       .  S
C729       C1164   1.477       .  S
C729        C730   1.394       .  A
C730        H734   1.085       .  S
C731       C1116   1.471       .  S
C731        C732   1.402       .  A
C732        H735   1.082       .  S
C736       C1065   1.497       .  S
C736        C737   1.417   1_655  A
C736       C2045   1.411       .  A
C737        C738   1.411       .  A
C737        H742   1.082       .  S
C738       C1128   1.488       .  S
C738        C739   1.398   1_455  A
C739       C2044   1.393       .  A
C739        H743   1.085       .  S
C740       C1212   1.480       .  S
C740       C2043   1.394       .  A
C740        C741   1.400       .  A
C741       C2040   1.412       .  A
C741        H744   1.081       .  S
C745       C1248   1.490   1_455  S
C745       C2050   1.407   1_455  A
C745        C750   1.412       .  A
C746       C2049   1.407       .  A
C746        C747   1.401       .  A
C746        H751   1.083       .  S
C747       C1200   1.472       .  S
C747       C2052   1.397       .  A
C748       C2051   1.395   1_455  A
C748        C749   1.397       .  A
C748        H752   1.085       .  S
C749       C1089   1.475       .  S
C749        C750   1.403       .  A
C750        H753   1.083       .  S
C754       C1053   1.488       .  S
C754        C755   1.410       .  A
C755        C756   1.403       .  A
C755        H760   1.079       .  S
C756       C1137   1.480       .  S
C756        C757   1.396       .  A
C757        H761   1.084       .  S
C758       C1221   1.488       .  S
C758        C759   1.407       .  A
C759        H762   1.075       .  S
O763        C779   1.276       .  A
O763       Zn769   2.020       .  S
C764        O780   1.277       .  A
C764        O777   1.273       .  A
C764       C1032   1.474       .  S
O765        C778   1.275       .  A
O765       Cd772   2.083       .  S
O766        C784   1.279       .  A
O766       Cd775   2.076       .  S
O767        C781   1.273       .  A
O767       Cd771   2.054       .  S
O768        C779   1.277       .  A
O768       Cd771   2.064       .  S
Zn769       O780   2.029       .  S
Zn769       O782   2.004       .  S
Zn769       O774   1.917       .  S
O770        C781   1.279       .  A
O770       Cd775   2.089       .  S
Cd771       O773   2.071       .  S
Cd771       O774   1.973       .  S
Cd772       O776   2.075       .  S
Cd772       O785   2.071       .  S
Cd772       O774   1.998       .  S
O773        C783   1.276       .  A
O774       Cd775   1.988       .  S
Cd775       O777   2.067       .  S
O776        C783   1.276       .  A
C778        O782   1.273       .  A
C778        C981   1.484       .  S
C779        C993   1.476       .  S
C781       C1017   1.483       .  S
C783       C1008   1.477       .  S
C784        O785   1.277       .  A
C784       C1041   1.481       .  S
C786       C1272   1.488       .  S
C786        C787   1.413       .  A
C786        C791   1.405       .  A
C787        C788   1.406       .  A
C787        H792   1.083       .  S
C788       C1044   1.474       .  S
C788        C789   1.396       .  A
C789        C790   1.394       .  A
C789        H793   1.085       .  S
C790        C969   1.468       .  S
C790        C791   1.399       .  A
C791        H794   1.083       .  S
O795        C811   1.277       .  A
O795       Zn801   2.016       .  S
C796        O812   1.273       .  A
C796        O809   1.274       .  A
C796        C921   1.469       .  S
O797        C810   1.275       .  A
O797       Cd804   2.068       .  S
O798        C816   1.273       .  A
O798       Cd807   2.043       .  S
O799        C813   1.279       .  A
O799       Cd803   2.085       .  S
O800        C811   1.274       .  A
O800       Cd803   2.063       .  S
Zn801       O812   2.015       .  S
Zn801       O814   2.010       .  S
Zn801       O806   1.918       .  S
O802        C813   1.275       .  A
O802       Cd807   2.070       .  S
Cd803       O805   2.058       .  S
Cd803       O806   1.966       .  S
Cd804       O808   2.075       .  S
Cd804       O817   2.071       .  S
Cd804       O806   1.995       .  S
O805        C815   1.275       .  A
O806       Cd807   1.959       .  S
Cd807       O809   2.050       .  S
O808        C815   1.275       .  A
C810        O814   1.277       .  A
C810        C909   1.484       .  S
C811        C957   1.475       .  S
C813        C945   1.479       .  S
C815        C933   1.464       .  S
C816        O817   1.275       .  A
C816        C972   1.466       .  S
C818       C1296   1.492       .  S
C818        C823   1.410       .  A
C819        C820   1.403       .  A
C819        H824   1.083       .  S
C820        C936   1.476       .  S
C821        C822   1.396       .  A
C821        H825   1.085       .  S
C822       C1005   1.473       .  S
C822        C823   1.403       .  A
C823        H826   1.082       .  S
C827       C1284   1.493       .  S
C827       C2132   1.416       .  A
C827        C832   1.412   1_655  A
C828       C2131   1.416       .  A
C828        C829   1.406       .  A
C828        H833   1.083       .  S
C829        C984   1.473       .  S
C829       C2134   1.393       .  A
C830       C2133   1.393       .  A
C830        C831   1.393   1_655  A
C830        H834   1.085       .  S
C831        C912   1.474       .  S
C831        C832   1.401       .  A
C832        H835   1.083       .  S
C836        C897   1.496       .  S
C836        C837   1.415       .  A
C836       C2145   1.412       .  A
C837        C838   1.406       .  A
C837        H842   1.082       .  S
C838       C1029   1.484       .  S
C838        C839   1.397       .  A
C839       C2144   1.394       .  A
C839        H843   1.085       .  S
C840        C960   1.480       .  S
C840       C2143   1.394       .  A
C840        C841   1.402       .  A
C841       C2140   1.415       .  A
C841        H844   1.081       .  S
C845        C888   1.492       .  S
C845        C846   1.415       .  A
C845        C850   1.410       .  A
C846        C847   1.410       .  A
C846        H851   1.082       .  S
C847       C1020   1.490       .  S
C847        C848   1.396       .  A
C848        C849   1.395       .  A
C848        H852   1.083       .  S
C849        C924   1.480       .  S
C849        C850   1.402       .  A
C850        H853   1.084       .  S
C854        C873   1.486       .  S
C854        C855   1.408       .  A
C855        C856   1.402       .  A
C855        H860   1.084       .  S
C856        C996   1.481       .  S
C856        C857   1.396       .  A
C857        H861   1.084       .  S
C858        C948   1.487       .  S
C858        C859   1.411       .  A
C859        H862   1.083       .  S
C863        H864   1.110       .  S
C863        C869   1.530       .  S
C863        C868   1.514       .  S
C863       C1519   1.536   1_565  S
C865        H866   1.107       .  S
C865        C871   1.565   1_545  S
C865       C1522   1.545       .  S
C865        C872   1.548   1_545  S
C867       C1515   1.531       .  S
C867        C870   1.379       .  D
C867       C1077   1.479       .  S
C868        C871   1.323       .  D
C868       C1056   1.377       .  S
C869        C872   1.381       .  D
C869       C1068   1.499       .  S
C870       C1517   1.547   1_455  S
C870        C885   1.490       .  S
C871        C876   1.540   1_565  S
C872        C900   1.482       .  S
C873        C874   1.401       .  A
C874        C875   1.511       .  A
C874        H879   1.084       .  S
C875        O880   2.177       .  S
C876        C877   1.409       .  A
C877        C878   1.370       .  A
C877        H881   1.079       .  S
C878        O882   1.373       .  S
O880        H884   1.020       .  S
O882        H883   0.992       .  S
C885        C886   1.403       .  A
C885        C890   1.408       .  A
C886        C887   1.407       .  A
C886        H891   1.084       .  S
C887        C888   1.412       .  A
C887        O892   1.372       .  S
C888        C889   1.406       .  A
C889        C890   1.403       .  A
C889        H893   1.084       .  S
C890        O894   1.373       .  S
O892        H896   0.992       .  S
O894        H895   0.992       .  S
C897        C898   1.412       .  A
C897       C2206   1.415       .  A
C898        C899   1.404       .  A
C898        H903   1.082       .  S
C899        C900   1.403       .  A
C899        O904   1.371       .  S
C900       C2205   1.400       .  A
C901       C2204   1.401       .  A
C901        C902   1.396       .  A
C901        H905   1.084       .  S
C902       C2201   1.415       .  A
C902        O906   1.372       .  S
O904        H908   0.991       .  S
O906        H907   0.992       .  S
C909        C910   1.406       .  A
C909        C914   1.415       .  A
C910        C911   1.393       .  A
C910        H915   1.083       .  S
C911        C912   1.407       .  A
C911        O916   1.372       .  S
C912        C913   1.401       .  A
C913        C914   1.403       .  A
C913        H917   1.084       .  S
C914        O918   1.371       .  S
O916        H920   0.992       .  S
O918        H919   0.992       .  S
C921        C922   1.399       .  A
C921        C926   1.409       .  A
C922        C923   1.393       .  A
C922        H927   1.084       .  S
C923        C924   1.411       .  A
C923        O928   1.374       .  S
C924        C925   1.405       .  A
C925        C926   1.404       .  A
C925        H929   1.083       .  S
C926        O930   1.371       .  S
O928        H932   0.992       .  S
O930        H931   0.992       .  S
C933        C934   1.401       .  A
C933        C938   1.405       .  A
C934        C935   1.404       .  A
C934        H939   1.084       .  S
C935        C936   1.410       .  A
C935        O940   1.372       .  S
C936        C937   1.402       .  A
C937        C938   1.395       .  A
C937        H941   1.084       .  S
C938        O942   1.372       .  S
O940        H944   0.991       .  S
O942        H943   0.992       .  S
C945        C946   1.401       .  A
C945        C950   1.411       .  A
C946        C947   1.398       .  A
C946        H951   1.084       .  S
C947        C948   1.412       .  A
C947        O952   1.374       .  S
C948        C949   1.404       .  A
C949        C950   1.406       .  A
C949        H953   1.083       .  S
C950        O954   1.371       .  S
O952        H956   0.992       .  S
O954        H955   0.992       .  S
C957        C958   1.401       .  A
C957        C962   1.412       .  A
C958        C959   1.396       .  A
C958        H963   1.084       .  S
C959        C960   1.411       .  A
C959        O964   1.372       .  S
C960        C961   1.402       .  A
C961        C962   1.401       .  A
C961        H965   1.083       .  S
C962        O966   1.372       .  S
O964        H968   0.992       .  S
O966        H967   0.992       .  S
C969        C970   1.399       .  A
C969        C974   1.408       .  A
C970        C971   1.392       .  A
C970        H975   1.084       .  S
C971        C972   1.408       .  A
C971        O976   1.373       .  S
C972        C973   1.403       .  A
C973        C974   1.401       .  A
C973        H977   1.084       .  S
C974        O978   1.371       .  S
O976        H980   0.992       .  S
O978        H979   0.992       .  S
C981        C982   1.408       .  A
C981        C986   1.413       .  A
C982        C983   1.405       .  A
C982        H987   1.083       .  S
C983        C984   1.407       .  A
C983        O988   1.371       .  S
C984        C985   1.399       .  A
C985        C986   1.396       .  A
C985        H989   1.084       .  S
C986        O990   1.373       .  S
O988        H992   0.992       .  S
O990        H991   0.993       .  S
C993        C994   1.405       .  A
C993        C998   1.407       .  A
C994        C995   1.401       .  A
C994        H999   1.084       .  S
C995        C996   1.409       .  A
C995       O1000   1.371       .  S
C996        C997   1.405       .  A
C997        C998   1.398       .  A
C997       H1001   1.084       .  S
C998       O1002   1.372       .  S
O1000      H1004   0.991       .  S
O1002      H1003   0.992       .  S
C1005      C1006   1.400       .  A
C1005      C1010   1.407       .  A
C1006      C1007   1.399       .  A
C1006      H1011   1.084       .  S
C1007      C1008   1.411       .  A
C1007      O1012   1.372       .  S
C1008      C1009   1.405       .  A
C1009      C1010   1.402       .  A
C1009      H1013   1.083       .  S
C1010      O1014   1.371       .  S
O1012      H1016   0.992       .  S
O1014      H1015   0.991       .  S
C1017      C1018   1.408       .  A
C1017      C1022   1.407       .  A
C1018      C1019   1.401       .  A
C1018      H1023   1.084       .  S
C1019      C1020   1.408       .  A
C1019      O1024   1.371       .  S
C1020      C1021   1.410       .  A
C1021      C1022   1.401       .  A
C1021      H1025   1.084       .  S
C1022      O1026   1.372       .  S
O1024      H1028   0.991       .  S
O1026      H1027   0.992       .  S
C1029      C1030   1.405       .  A
C1029      C1034   1.409       .  A
C1030      C1031   1.394       .  A
C1030      H1035   1.084       .  S
C1031      C1032   1.405       .  A
C1031      O1036   1.372       .  S
C1032      C1033   1.406       .  A
C1033      C1034   1.406       .  A
C1033      H1037   1.083       .  S
C1034      O1038   1.371       .  S
O1036      H1040   0.992       .  S
O1038      H1039   0.992       .  S
C1041      C1042   1.406       .  A
C1041      C1046   1.412       .  A
C1042      C1043   1.399       .  A
C1042      H1047   1.084       .  S
C1043      C1044   1.406       .  A
C1043      O1048   1.372       .  S
C1044      C1045   1.402       .  A
C1045      C1046   1.402       .  A
C1045      H1049   1.084       .  S
C1046      O1050   1.372       .  S
O1048      H1052   0.992       .  S
O1050      H1051   0.992       .  S
C1053      C1054   1.948       .  A
C1054      C1055   1.914       .  A
C1054      H1059   1.080       .  S
C1055      C1056   1.926       .  A
C1055      O1060   1.369       .  S
C1057      C1058   1.919       .  A
C1057      H1061   1.081       .  S
C1058      O1062   1.367       .  S
O1060      H1064   0.990       .  S
O1062      H1063   0.990       .  S
C1065      C1066   1.408   1_655  A
C1065      C2374   1.414       .  A
C1066      C1067   1.405       .  A
C1066      H1071   1.083       .  S
C1067      C2372   1.411   1_455  A
C1067      O1072   1.371       .  S
C1068      C2371   1.410       .  A
C1068      C1069   1.403       .  A
C1069      C1070   1.400       .  A
C1069      H1073   1.083       .  S
C1070      C2369   1.415       .  A
C1070      O1074   1.373       .  S
O1072      H1076   0.992       .  S
O1074      H1075   0.992       .  S
C1077      C1078   1.400       .  A
C1077      C1082   1.405       .  A
C1078      C1079   1.396       .  A
C1078      H1083   1.083       .  S
C1079      C1080   1.413       .  A
C1079      O1084   1.373       .  S
C1080      C1081   1.406       .  A
C1081      C1082   1.397       .  A
C1081      H1085   1.083       .  S
C1082      O1086   1.371       .  S
O1084      H1088   0.992       .  S
O1086      H1087   0.992       .  S
C1089      C1090   1.401       .  A
C1089      C1094   1.408       .  A
C1090      C1091   1.396       .  A
C1090      H1095   1.084       .  S
C1091      C1092   1.410       .  A
C1091      O1096   1.372       .  S
C1092      C1093   1.404       .  A
C1093      C1094   1.404       .  A
C1093      H1097   1.083       .  S
C1094      O1098   1.372       .  S
O1096      H1100   0.992       .  S
O1098      H1099   0.992       .  S
C1101      C1102   1.399       .  A
C1101      C1106   1.407       .  A
C1102      C1103   1.394       .  A
C1102      H1107   1.084       .  S
C1103      C1104   1.410       .  A
C1103      O1108   1.374       .  S
C1104      C1105   1.403       .  A
C1105      C1106   1.402       .  A
C1105      H1109   1.083       .  S
C1106      O1110   1.371       .  S
O1108      H1112   0.991       .  S
O1110      H1111   0.991       .  S
C1113      C1114   1.410       .  A
C1113      C1118   1.416       .  A
C1114      C1115   1.402       .  A
C1114      H1119   1.083       .  S
C1115      C1116   1.404       .  A
C1115      O1120   1.371       .  S
C1116      C1117   1.398       .  A
C1117      C1118   1.395       .  A
C1117      H1121   1.084       .  S
C1118      O1122   1.372       .  S
O1120      H1124   0.992       .  S
O1122      H1123   0.992       .  S
C1125      C1126   1.406       .  A
C1125      C1130   1.403       .  A
C1126      C1127   1.407       .  A
C1126      H1131   1.084       .  S
C1127      C1128   1.409       .  A
C1127      O1132   1.371       .  S
C1128      C1129   1.408       .  A
C1129      C1130   1.394       .  A
C1129      H1133   1.084       .  S
C1130      O1134   1.372       .  S
O1132      H1136   0.992       .  S
O1134      H1135   0.992       .  S
C1137      C1138   1.405       .  A
C1137      C1142   1.408       .  A
C1138      C1139   1.401       .  A
C1138      H1143   1.084       .  S
C1139      C1140   1.410       .  A
C1139      O1144   1.371       .  S
C1140      C1141   1.404       .  A
C1141      C1142   1.399       .  A
C1141      H1145   1.084       .  S
C1142      O1146   1.373       .  S
O1144      H1148   0.991       .  S
O1146      H1147   0.992       .  S
C1149      C1150   1.405       .  A
C1149      C1154   1.411       .  A
C1150      C1151   1.396       .  A
C1150      H1155   1.084       .  S
C1151      C1152   1.405       .  A
C1151      O1156   1.372       .  S
C1152      C1153   1.403       .  A
C1153      C1154   1.405       .  A
C1153      H1157   1.084       .  S
C1154      O1158   1.371       .  S
O1156      H1160   0.991       .  S
O1158      H1159   0.992       .  S
C1161      C1162   1.403       .  A
C1161      C1166   1.406       .  A
C1162      C1163   1.397       .  A
C1162      H1167   1.084       .  S
C1163      C1164   1.407       .  A
C1163      O1168   1.372       .  S
C1164      C1165   1.406       .  A
C1165      C1166   1.404       .  A
C1165      H1169   1.084       .  S
C1166      O1170   1.371       .  S
O1168      H1172   0.992       .  S
O1170      H1171   0.992       .  S
C1173      C1174   1.402       .  A
C1173      C1178   1.407       .  A
C1174      C1175   1.391       .  A
C1174      H1179   1.084       .  S
C1175      C1176   1.407       .  A
C1175      O1180   1.372       .  S
C1176      C1177   1.404       .  A
C1177      C1178   1.396       .  A
C1177      H1181   1.084       .  S
C1178      O1182   1.372       .  S
O1180      H1184   0.992       .  S
O1182      H1183   0.991       .  S
C1185      C1186   1.398       .  A
C1185      C1190   1.406       .  A
C1186      C1187   1.392       .  A
C1186      H1191   1.084       .  S
C1187      C1188   1.414       .  A
C1187      O1192   1.372       .  S
C1188      C1189   1.407       .  A
C1189      C1190   1.404       .  A
C1189      H1193   1.083       .  S
C1190      O1194   1.371       .  S
O1192      H1196   0.991       .  S
O1194      H1195   0.992       .  S
C1197      C1198   1.403       .  A
C1197      C1202   1.408       .  A
C1198      C1199   1.395       .  A
C1198      H1203   1.084       .  S
C1199      C1200   1.406       .  A
C1199      O1204   1.372       .  S
C1200      C1201   1.404       .  A
C1201      C1202   1.400       .  A
C1201      H1205   1.084       .  S
C1202      O1206   1.372       .  S
O1204      H1208   0.992       .  S
O1206      H1207   0.992       .  S
C1209      C1210   1.405       .  A
C1209      C1214   1.405       .  A
C1210      C1211   1.399       .  A
C1210      H1215   1.083       .  S
C1211      C1212   1.408       .  A
C1211      O1216   1.372       .  S
C1212      C1213   1.406       .  A
C1213      C1214   1.398       .  A
C1213      H1217   1.084       .  S
C1214      O1218   1.372       .  S
O1216      H1220   0.992       .  S
O1218      H1219   0.992       .  S
C1221      C1222   1.406       .  A
C1221      C1226   1.413       .  A
C1222      C1223   1.402       .  A
C1222      H1227   1.083       .  S
C1223      C1224   1.409       .  A
C1223      O1228   1.372       .  S
C1224      C1225   1.400       .  A
C1225      C1226   1.396       .  A
C1225      H1229   1.084       .  S
C1226      O1230   1.372       .  S
O1228      H1232   0.992       .  S
O1230      H1231   0.991       .  S
C1233      C1234   1.401       .  A
C1233      C1238   1.408       .  A
C1234      C1235   1.405       .  A
C1234      H1239   1.084       .  S
C1235      C1236   1.415       .  A
C1235      O1240   1.372       .  S
C1236      C1237   1.408       .  A
C1237      C1238   1.402       .  A
C1237      H1241   1.083       .  S
C1238      O1242   1.374       .  S
O1240      H1244   0.992       .  S
O1242      H1243   0.991       .  S
C1245      C1962   1.490       .  S
C1245      C1246   1.398   1_655  A
C1245      C2554   1.410       .  A
C1246      C1247   1.399       .  A
C1246      H1251   1.074       .  S
C1247      C1248   1.412   1_455  A
C1247      O1252   1.371       .  S
C1248      C2553   1.407       .  A
C1249      C2552   1.407       .  A
C1249      C1250   1.397       .  A
C1249      H1253   1.083       .  S
C1250      C2549   1.409       .  A
C1250      O1254   1.372       .  S
O1252      H1256   0.991       .  S
O1254      H1255   0.992       .  S
C1257      C1258   1.402       .  A
C1258      C1259   1.401       .  A
C1258      H1263   1.082       .  S
C1259      O1264   1.371       .  S
C1260      C1261   1.409       .  A
C1261      C1262   1.403       .  A
C1261      H1265   1.082       .  S
C1262      O1266   1.369       .  S
O1264      H1268   0.991       .  S
O1266      H1267   0.993       .  S
C1269      C1270   1.407       .  A
C1269      C1274   1.410       .  A
C1270      C1271   1.397       .  A
C1270      H1275   1.082       .  S
C1271      C1272   1.409       .  A
C1271      O1276   1.373       .  S
C1272      C1273   1.404       .  A
C1273      C1274   1.409       .  A
C1273      H1277   1.084       .  S
C1274      O1278   1.370       .  S
O1276      H1280   0.992       .  S
O1278      H1279   0.992       .  S
C1281      C1965   1.494       .  S
C1281      C1282   1.404       .  A
C1281      C2590   1.408   1_455  A
C1282      C1283   1.401       .  A
C1282      H1287   1.083       .  S
C1283      C1284   1.412   1_455  A
C1283      O1288   1.373       .  S
C1284      C2589   1.408       .  A
C1285      C2588   1.410       .  A
C1285      C1286   1.407       .  A
C1285      H1289   1.083       .  S
C1286      C2585   1.409       .  A
C1286      O1290   1.371       .  S
O1288      H1292   0.992       .  S
O1290      H1291   0.992       .  S
C1293      C1294   1.403       .  A
C1294      C1295   1.401       .  A
C1294      H1299   1.084       .  S
C1295      C1296   1.413       .  A
C1295      O1300   1.372       .  S
C1297      C1298   1.400       .  A
C1297      H1301   1.083       .  S
C1298      O1302   1.369       .  S
O1300      H1304   0.992       .  S
O1302      H1303   0.991       .  S
C1305      H1306   1.111       .  S
C1305      C1310   1.541       .  S
C1305      C1961   1.536   1_445  S
C1307      H1308   1.109       .  S
C1307      C1314   1.547       .  S
C1309      C1957   1.535   1_655  S
C1309      C1312   1.386       .  D
C1309      C1885   1.487       .  S
C1310      C1313   1.379       .  D
C1311      C1314   1.371       .  D
C1311      C1909   1.494       .  S
C1312      C1921   1.505       .  S
C1314      C2597   1.483       .  S
O1315      C1331   1.276       .  A
O1315     Zn1321   2.013       .  S
C1316      O1332   1.270       .  A
C1316      O1329   1.272       .  A
C1316      C1828   1.467       .  S
O1317      C1330   1.276       .  A
O1317     Cd1324   2.082       .  S
O1318      C1336   1.272       .  A
O1318     Cd1327   2.037   1_556  S
O1319      C1333   1.277       .  A
O1319     Cd1323   2.079       .  S
O1320      C1331   1.273       .  A
O1320     Cd1323   2.058       .  S
Zn1321     O1332   1.994       .  S
Zn1321     O1334   2.000   1_554  S
Zn1321     O1326   1.918   1_554  S
O1322      C1333   1.270       .  A
O1322     Cd1327   2.041       .  S
Cd1323     O1325   2.061   1_554  S
Cd1323     O1326   1.980   1_554  S
Cd1324     O1328   2.083       .  S
Cd1324     O1337   2.078       .  S
Cd1324     O1326   2.002       .  S
O1325      C1335   1.276       .  A
O1326     Cd1327   1.975   1_556  S
Cd1327     O1329   2.047       .  S
O1328      C1335   1.277       .  A
C1330      O1334   1.274       .  A
C1330      C1813   1.475       .  S
C1331      C1876   1.474       .  S
C1333      C1861   1.472       .  S
C1335      C1849   1.475       .  S
C1336      O1337   1.276       .  A
C1336      C1840   1.470       .  S
C1338      C1888   1.493       .  S
C1338      C1339   1.415       .  A
C1338      C1343   1.411       .  A
C1339      C1340   1.403       .  A
C1339      H1344   1.081       .  S
C1340      C1804   1.471       .  S
C1340      C1341   1.394       .  A
C1341      C1342   1.392       .  A
C1341      H1345   1.085       .  S
C1342      C1837   1.465       .  S
C1342      C1343   1.399       .  A
C1343      H1346   1.083       .  S
O1347      C1363   1.271       .  A
O1347     Zn1353   2.009       .  S
C1348      O1364   1.276       .  A
C1348      O1361   1.275       .  A
C1348      C1792   1.478       .  S
O1349      C1362   1.276       .  A
O1349     Cd1356   2.071       .  S
O1350      C1368   1.276       .  A
O1350     Cd1359   2.064   1_556  S
O1351      C1365   1.273       .  A
O1351     Cd1355   2.066       .  S
O1352      C1363   1.276       .  A
O1352     Cd1355   2.073       .  S
Zn1353     O1364   2.017       .  S
Zn1353     O1366   2.020   1_554  S
Zn1353     O1358   1.923   1_554  S
O1354      C1365   1.277       .  A
O1354     Cd1359   2.077       .  S
Cd1355     O1357   2.066   1_554  S
Cd1355     O1358   1.977   1_554  S
Cd1356     O1360   2.080       .  S
Cd1356     O1369   2.080       .  S
Cd1356     O1358   1.999       .  S
O1357      C1367   1.275       .  A
O1358     Cd1359   1.975   1_556  S
Cd1359     O1361   2.073       .  S
O1360      C1367   1.275       .  A
C1362      O1366   1.277       .  A
C1362      C1765   1.488       .  S
C1363      C1777   1.472       .  S
C1365      C1753   1.469       .  S
C1367      C1744   1.473       .  S
C1368      O1369   1.276       .  A
C1368      C1801   1.484       .  S
C1370      C1732   1.486       .  S
C1370      C1371   1.414       .  A
C1370      C1375   1.407       .  A
C1371      C1372   1.405       .  A
C1371      H1376   1.083       .  S
C1372      C1756   1.479       .  S
C1372      C1373   1.395       .  A
C1373      C1374   1.394       .  A
C1373      H1377   1.084       .  S
C1374      C1825   1.472       .  S
C1374      C1375   1.397       .  A
C1375      H1378   1.082       .  S
C1379      C1912   1.485       .  S
C1379      C1380   1.410   1_565  A
C1379      C2036   1.408       .  A
C1380      C1381   1.401       .  A
C1380      H1385   1.084       .  S
C1381      C1816   1.471       .  S
C1381      C1382   1.396   1_545  A
C1382      C2035   1.395       .  A
C1382      H1386   1.085   1_565  S
C1383      C1768   1.472       .  S
C1383      C2034   1.394       .  A
C1383      C1384   1.403       .  A
C1384      C2031   1.414       .  A
C1384      H1387   1.082       .  S
C1388      C1717   1.496       .  S
C1388      C1389   1.416       .  A
C1389      C1390   1.408       .  A
C1389      H1394   1.082       .  S
C1390      C1780   1.485       .  S
C1390      C1391   1.397       .  A
C1391      H1395   1.085       .  S
C1392      C1864   1.478       .  S
C1392      C1393   1.398       .  A
C1393      H1396   1.081       .  S
C1397      C1900   1.500       .  S
C1397      C1402   1.415       .  A
C1398      C1399   1.402       .  A
C1398      H1403   1.083       .  S
C1399      C1852   1.475       .  S
C1400      C1401   1.397       .  A
C1400      H1404   1.085       .  S
C1401      C1741   1.478       .  S
C1401      C1402   1.405       .  A
C1402      H1405   1.082       .  S
C1406      C1705   1.485       .  S
C1406      C1407   1.410       .  A
C1406      C2063   1.410       .  A
C1407      C1408   1.404       .  A
C1407      H1412   1.080       .  S
C1408      C1789   1.482       .  S
C1408      C1409   1.396       .  A
C1409      C2062   1.396       .  A
C1409      H1413   1.084       .  S
C1410      C1873   1.486       .  S
C1410      C2061   1.396   1_545  A
C1410      C1411   1.406       .  A
C1411      C2058   1.412   1_545  A
C1411      H1414   1.076       .  S
O1415      C1431   1.276       .  A
O1415     Zn1421   2.023       .  S
C1416      O1432   1.277       .  A
C1416      O1429   1.274       .  A
C1416      C1684   1.472       .  S
O1417      C1430   1.276       .  A
O1417     Cd1424   2.090       .  S
O1418      C1436   1.279       .  A
O1418     Cd1427   2.076       .  S
O1419      C1433   1.272       .  A
O1419     Cd1423   2.054       .  S
O1420      C1431   1.275       .  A
O1420     Cd1423   2.053       .  S
Zn1421     O1432   2.023       .  S
Zn1421     O1434   2.002       .  S
Zn1421     O1426   1.914       .  S
O1422      C1433   1.280       .  A
O1422     Cd1427   2.097       .  S
Cd1423     O1425   2.061       .  S
Cd1423     O1426   1.967       .  S
Cd1424     O1428   2.076       .  S
Cd1424     O1437   2.077       .  S
Cd1424     O1426   1.994       .  S
O1425      C1435   1.275       .  A
O1426     Cd1427   1.981       .  S
Cd1427     O1429   2.065       .  S
O1428      C1435   1.277       .  A
C1430      O1434   1.273       .  A
C1430      C1633   1.486       .  S
C1431      C1645   1.475       .  S
C1433      C1669   1.484       .  S
C1435      C1660   1.486       .  S
C1436      O1437   1.278       .  A
C1436      C1693   1.483       .  S
C1438      C1924   1.488       .  S
C1438      C1439   1.413       .  A
C1438      C1443   1.404       .  A
C1439      C1440   1.407       .  A
C1439      H1444   1.083       .  S
C1440      C1696   1.475       .  S
C1440      C1441   1.397       .  A
C1441      C1442   1.395       .  A
C1441      H1445   1.085       .  S
C1442      C1621   1.469       .  S
C1442      C1443   1.397       .  A
C1443      H1446   1.083       .  S
O1447      C1463   1.276       .  A
O1447     Zn1453   2.018       .  S
C1448      O1464   1.273       .  A
C1448      O1461   1.275       .  A
C1448      C1573   1.473       .  S
O1449      C1462   1.275       .  A
O1449     Cd1456   2.069       .  S
O1450      C1468   1.273       .  A
O1450     Cd1459   2.045       .  S
O1451      C1465   1.278       .  A
O1451     Cd1455   2.079       .  S
O1452      C1463   1.272       .  A
O1452     Cd1455   2.053       .  S
Zn1453     O1464   2.024       .  S
Zn1453     O1466   2.004       .  S
Zn1453     O1458   1.921       .  S
O1454      C1465   1.275       .  A
O1454     Cd1459   2.072       .  S
Cd1455     O1457   2.060       .  S
Cd1455     O1458   1.968       .  S
Cd1456     O1460   2.080       .  S
Cd1456     O1469   2.075       .  S
Cd1456     O1458   2.005       .  S
O1457      C1467   1.275       .  A
O1458     Cd1459   1.964       .  S
Cd1459     O1461   2.059       .  S
O1460      C1467   1.275       .  A
C1462      O1466   1.276       .  A
C1462      C1561   1.483       .  S
C1463      C1609   1.473       .  S
C1465      C1597   1.481       .  S
C1467      C1585   1.469       .  S
C1468      O1469   1.275       .  A
C1468      C1624   1.466       .  S
C1470      C1948   1.490       .  S
C1470      C2123   1.412   1_545  A
C1470      C1475   1.410       .  A
C1471      C2122   1.414       .  A
C1471      C1472   1.401       .  A
C1471      H1476   1.083       .  S
C1472      C1588   1.476       .  S
C1472      C2125   1.395       .  A
C1473      C2124   1.397   1_545  A
C1473      C1474   1.395       .  A
C1473      H1477   1.085       .  S
C1474      C1657   1.472       .  S
C1474      C1475   1.403       .  A
C1475      H1478   1.083       .  S
C1479      C1936   1.493       .  S
C1479      C1484   1.412       .  A
C1480      C1481   1.404       .  A
C1480      H1485   1.083       .  S
C1481      C1636   1.474       .  S
C1482      C1483   1.392       .  A
C1482      H1486   1.085       .  S
C1483      C1564   1.472       .  S
C1483      C1484   1.400       .  A
C1484      H1487   1.082       .  S
C1488      C1549   1.502       .  S
C1488      C1489   1.416   1_455  A
C1489      C1490   1.406       .  A
C1489      H1494   1.081       .  S
C1490      C1681   1.483       .  S
C1490      C1491   1.395   1_655  A
C1491      H1495   1.084       .  S
C1492      C1612   1.479       .  S
C1492      C1493   1.402       .  A
C1493      H1496   1.081       .  S
C1497      C1540   1.496       .  S
C1497      C1498   1.416       .  A
C1497      C1502   1.413       .  A
C1498      C1499   1.410       .  A
C1498      H1503   1.082       .  S
C1499      C1672   1.490       .  S
C1499      C1500   1.397       .  A
C1500      C1501   1.397       .  A
C1500      H1504   1.084       .  S
C1501      C1576   1.484       .  S
C1501      C1502   1.404       .  A
C1502      H1505   1.083       .  S
C1506      C1525   1.485       .  S
C1506      C1507   1.406   1_565  A
C1506      C2163   1.412       .  A
C1507      C1508   1.400       .  A
C1507      H1512   1.084       .  S
C1508      C1648   1.479       .  S
C1508      C1509   1.397       .  A
C1509      C2162   1.400   1_545  A
C1509      H1513   1.084       .  S
C1510      C1600   1.490       .  S
C1510      C2161   1.401       .  A
C1510      C1511   1.410       .  A
C1511      C2158   1.410       .  A
C1511      H1514   1.083       .  S
C1515      H1516   1.110       .  S
C1515      C1521   1.526   1_455  S
C1515      C1520   1.508   1_455  S
C1517      H1518   1.107       .  S
C1517      C1523   1.569       .  S
C1517      C1524   1.551       .  S
C1519      C1522   1.380       .  D
C1519      C1729   1.481       .  S
C1520      C1523   1.323       .  D
C1520      C1708   1.373       .  S
C1521      C1524   1.381       .  D
C1521      C1720   1.494       .  S
C1522      C1537   1.493       .  S
C1523      C1528   1.544       .  S
C1524      C1552   1.487   1_655  S
C1525      C1526   1.402       .  A
C1525      C2182   1.376   1_565  A
C1526      C1527   1.510       .  A
C1526      H1531   1.084       .  S
C1527      C2180   1.568   1_565  A
C1527      O1532   2.176       .  S
C1528      C2179   1.570       .  A
C1528      C1529   1.411       .  A
C1529      C1530   1.373       .  A
C1529      H1533   1.079       .  S
C1530      C2177   1.375       .  A
C1530      O1534   1.373       .  S
O1532      H1536   1.021   1_565  S
O1534      H1535   0.993       .  S
C1537      C1538   1.403       .  A
C1537      C1542   1.409       .  A
C1538      C1539   1.408       .  A
C1538      H1543   1.084       .  S
C1539      C1540   1.414       .  A
C1539      O1544   1.372       .  S
C1540      C1541   1.407       .  A
C1541      C1542   1.404       .  A
C1541      H1545   1.083       .  S
C1542      O1546   1.373       .  S
O1544      H1548   0.992       .  S
O1546      H1547   0.992       .  S
C1549      C1550   1.414   1_455  A
C1550      C1551   1.405       .  A
C1550      H1555   1.082       .  S
C1551      C1552   1.402   1_655  A
C1551      O1556   1.371       .  S
C1553      C1554   1.396       .  A
C1553      H1557   1.084       .  S
C1554      O1558   1.372       .  S
O1556      H1560   0.991       .  S
O1558      H1559   0.992       .  S
C1561      C1562   1.406       .  A
C1561      C1566   1.415       .  A
C1562      C1563   1.390       .  A
C1562      H1567   1.083       .  S
C1563      C1564   1.405       .  A
C1563      O1568   1.372       .  S
C1564      C1565   1.401       .  A
C1565      C1566   1.403       .  A
C1565      H1569   1.084       .  S
C1566      O1570   1.371       .  S
O1568      H1572   0.992       .  S
O1570      H1571   0.992       .  S
C1573      C1574   1.399       .  A
C1573      C1578   1.410       .  A
C1574      C1575   1.394       .  A
C1574      H1579   1.084       .  S
C1575      C1576   1.411       .  A
C1575      O1580   1.374       .  S
C1576      C1577   1.406       .  A
C1577      C1578   1.406       .  A
C1577      H1581   1.083       .  S
C1578      O1582   1.371       .  S
O1580      H1584   0.992       .  S
O1582      H1583   0.992       .  S
C1585      C1586   1.401       .  A
C1585      C1590   1.407       .  A
C1586      C1587   1.404       .  A
C1586      H1591   1.083       .  S
C1587      C1588   1.409       .  A
C1587      O1592   1.372       .  S
C1588      C1589   1.402       .  A
C1589      C1590   1.396       .  A
C1589      H1593   1.084       .  S
C1590      O1594   1.371       .  S
O1592      H1596   0.991       .  S
O1594      H1595   0.992       .  S
C1597      C1598   1.401       .  A
C1597      C1602   1.412       .  A
C1598      C1599   1.398       .  A
C1598      H1603   1.084       .  S
C1599      C1600   1.414       .  A
C1599      O1604   1.374       .  S
C1600      C1601   1.405       .  A
C1601      C1602   1.406       .  A
C1601      H1605   1.083       .  S
C1602      O1606   1.371       .  S
O1604      H1608   0.992       .  S
O1606      H1607   0.992       .  S
C1609      C1610   1.401       .  A
C1609      C1614   1.411       .  A
C1610      C1611   1.397       .  A
C1610      H1615   1.084       .  S
C1611      C1612   1.412       .  A
C1611      O1616   1.372       .  S
C1612      C1613   1.401       .  A
C1613      C1614   1.398       .  A
C1613      H1617   1.084       .  S
C1614      O1618   1.372       .  S
O1616      H1620   0.992       .  S
O1618      H1619   0.992       .  S
C1621      C1622   1.399       .  A
C1621      C1626   1.408       .  A
C1622      C1623   1.391       .  A
C1622      H1627   1.084       .  S
C1623      C1624   1.408       .  A
C1623      O1628   1.373       .  S
C1624      C1625   1.403       .  A
C1625      C1626   1.402       .  A
C1625      H1629   1.083       .  S
C1626      O1630   1.371       .  S
O1628      H1632   0.992       .  S
O1630      H1631   0.992       .  S
C1633      C1634   1.408       .  A
C1633      C1638   1.414       .  A
C1634      C1635   1.406       .  A
C1634      H1639   1.083       .  S
C1635      C1636   1.406       .  A
C1635      O1640   1.371       .  S
C1636      C1637   1.399       .  A
C1637      C1638   1.395       .  A
C1637      H1641   1.084       .  S
C1638      O1642   1.373       .  S
O1640      H1644   0.992       .  S
O1642      H1643   0.993       .  S
C1645      C1646   1.404       .  A
C1645      C1650   1.408       .  A
C1646      C1647   1.401       .  A
C1646      H1651   1.084       .  S
C1647      C1648   1.409       .  A
C1647      O1652   1.371       .  S
C1648      C1649   1.403       .  A
C1649      C1650   1.398       .  A
C1649      H1653   1.084       .  S
C1650      O1654   1.373       .  S
O1652      H1656   0.991       .  S
O1654      H1655   0.992       .  S
C1657      C1658   1.399       .  A
C1657      C1662   1.403       .  A
C1658      C1659   1.397       .  A
C1658      H1663   1.084       .  S
C1659      C1660   1.415       .  A
C1659      O1664   1.372       .  S
C1660      C1661   1.409       .  A
C1661      C1662   1.402       .  A
C1661      H1665   1.083       .  S
C1662      O1666   1.371       .  S
O1664      H1668   0.992       .  S
O1666      H1667   0.991       .  S
C1669      C1670   1.408       .  A
C1669      C1674   1.406       .  A
C1670      C1671   1.402       .  A
C1670      H1675   1.084       .  S
C1671      C1672   1.409       .  A
C1671      O1676   1.371       .  S
C1672      C1673   1.410       .  A
C1673      C1674   1.402       .  A
C1673      H1677   1.084       .  S
C1674      O1678   1.372       .  S
O1676      H1680   0.991       .  S
O1678      H1679   0.992       .  S
C1681      C1682   1.406       .  A
C1681      C1686   1.408       .  A
C1682      C1683   1.395       .  A
C1682      H1687   1.084       .  S
C1683      C1684   1.406       .  A
C1683      O1688   1.372       .  S
C1684      C1685   1.405       .  A
C1685      C1686   1.404       .  A
C1685      H1689   1.083       .  S
C1686      O1690   1.371       .  S
O1688      H1692   0.992       .  S
O1690      H1691   0.992       .  S
C1693      C1694   1.406       .  A
C1693      C1698   1.412       .  A
C1694      C1695   1.398       .  A
C1694      H1699   1.084       .  S
C1695      C1696   1.405       .  A
C1695      O1700   1.372       .  S
C1696      C1697   1.403       .  A
C1697      C1698   1.404       .  A
C1697      H1701   1.084       .  S
C1698      O1702   1.371       .  S
O1700      H1704   0.992       .  S
O1702      H1703   0.992       .  S
C1705      C1706   1.946       .  A
C1705      C2362   1.928       .  A
C1706      C1707   1.913       .  A
C1706      H1711   1.080       .  S
C1707      C1708   1.924       .  A
C1707      O1712   1.369       .  S
C1708      C2361   1.940       .  A
C1709      C2360   1.940   1_545  A
C1709      C1710   1.920       .  A
C1709      H1713   1.081       .  S
C1710      C2357   1.928   1_545  A
C1710      O1714   1.367       .  S
O1712      H1716   0.990       .  S
O1714      H1715   0.990       .  S
C1717      C1718   1.408       .  A
C1718      C1719   1.404       .  A
C1718      H1723   1.083       .  S
C1719      O1724   1.371       .  S
C1720      C1721   1.402       .  A
C1721      C1722   1.397       .  A
C1721      H1725   1.083       .  S
C1722      O1726   1.373       .  S
O1724      H1728   0.992       .  S
O1726      H1727   0.992       .  S
C1729      C1730   1.401       .  A
C1729      C1734   1.406       .  A
C1730      C1731   1.396       .  A
C1730      H1735   1.083       .  S
C1731      C1732   1.413       .  A
C1731      O1736   1.373       .  S
C1732      C1733   1.406       .  A
C1733      C1734   1.400       .  A
C1733      H1737   1.083       .  S
C1734      O1738   1.371       .  S
O1736      H1740   0.992       .  S
O1738      H1739   0.992       .  S
C1741      C1742   1.402       .  A
C1741      C1746   1.409       .  A
C1742      C1743   1.398       .  A
C1742      H1747   1.084       .  S
C1743      C1744   1.408       .  A
C1743      O1748   1.372       .  S
C1744      C1745   1.403       .  A
C1745      C1746   1.404       .  A
C1745      H1749   1.084       .  S
C1746      O1750   1.372       .  S
O1748      H1752   0.992       .  S
O1750      H1751   0.992       .  S
C1753      C1754   1.399       .  A
C1753      C1758   1.408       .  A
C1754      C1755   1.395       .  A
C1754      H1759   1.084       .  S
C1755      C1756   1.411       .  A
C1755      O1760   1.374       .  S
C1756      C1757   1.404       .  A
C1757      C1758   1.404       .  A
C1757      H1761   1.083       .  S
C1758      O1762   1.371       .  S
O1760      H1764   0.992       .  S
O1762      H1763   0.991       .  S
C1765      C1766   1.411       .  A
C1765      C1770   1.415       .  A
C1766      C1767   1.403       .  A
C1766      H1771   1.083       .  S
C1767      C1768   1.404       .  A
C1767      O1772   1.371       .  S
C1768      C1769   1.399       .  A
C1769      C1770   1.396       .  A
C1769      H1773   1.084       .  S
C1770      O1774   1.372       .  S
O1772      H1776   0.992       .  S
O1774      H1775   0.992       .  S
C1777      C1778   1.406       .  A
C1777      C1782   1.403       .  A
C1778      C1779   1.406       .  A
C1778      H1783   1.084       .  S
C1779      C1780   1.409       .  A
C1779      O1784   1.371       .  S
C1780      C1781   1.407       .  A
C1781      C1782   1.393       .  A
C1781      H1785   1.084       .  S
C1782      O1786   1.372       .  S
O1784      H1788   0.992       .  S
O1786      H1787   0.992       .  S
C1789      C1790   1.405       .  A
C1789      C1794   1.409       .  A
C1790      C1791   1.401       .  A
C1790      H1795   1.084       .  S
C1791      C1792   1.410       .  A
C1791      O1796   1.371       .  S
C1792      C1793   1.404       .  A
C1793      C1794   1.400       .  A
C1793      H1797   1.084       .  S
C1794      O1798   1.374       .  S
O1796      H1800   0.991       .  S
O1798      H1799   0.992       .  S
C1801      C1802   1.406       .  A
C1801      C1806   1.414       .  A
C1802      C1803   1.394       .  A
C1802      H1807   1.084       .  S
C1803      C1804   1.405       .  A
C1803      O1808   1.372       .  S
C1804      C1805   1.401       .  A
C1805      C1806   1.404       .  A
C1805      H1809   1.084       .  S
C1806      O1810   1.371       .  S
O1808      H1812   0.991       .  S
O1810      H1811   0.992       .  S
C1813      C1814   1.405       .  A
C1813      C1818   1.408       .  A
C1814      C1815   1.395       .  A
C1814      H1819   1.084       .  S
C1815      C1816   1.405       .  A
C1815      O1820   1.372       .  S
C1816      C1817   1.403       .  A
C1817      C1818   1.403       .  A
C1817      H1821   1.083       .  S
C1818      O1822   1.371       .  S
O1820      H1824   0.992       .  S
O1822      H1823   0.992       .  S
C1825      C1826   1.404       .  A
C1825      C1830   1.408       .  A
C1826      C1827   1.393       .  A
C1826      H1831   1.084       .  S
C1827      C1828   1.406       .  A
C1827      O1832   1.372       .  S
C1828      C1829   1.404       .  A
C1829      C1830   1.396       .  A
C1829      H1833   1.084       .  S
C1830      O1834   1.372       .  S
O1832      H1836   0.992       .  S
O1834      H1835   0.991       .  S
C1837      C1838   1.397       .  A
C1837      C1842   1.406       .  A
C1838      C1839   1.392       .  A
C1838      H1843   1.084       .  S
C1839      C1840   1.411       .  A
C1839      O1844   1.372       .  S
C1840      C1841   1.404       .  A
C1841      C1842   1.402       .  A
C1841      H1845   1.083       .  S
C1842      O1846   1.371       .  S
O1844      H1848   0.991       .  S
O1846      H1847   0.992       .  S
C1849      C1850   1.404       .  A
C1849      C1854   1.409       .  A
C1850      C1851   1.396       .  A
C1850      H1855   1.084       .  S
C1851      C1852   1.405       .  A
C1851      O1856   1.372       .  S
C1852      C1853   1.404       .  A
C1853      C1854   1.404       .  A
C1853      H1857   1.084       .  S
C1854      O1858   1.371       .  S
O1856      H1860   0.992       .  S
O1858      H1859   0.992       .  S
C1861      C1862   1.406       .  A
C1861      C1866   1.405       .  A
C1862      C1863   1.398       .  A
C1862      H1867   1.084       .  S
C1863      C1864   1.408       .  A
C1863      O1868   1.372       .  S
C1864      C1865   1.406       .  A
C1865      C1866   1.397       .  A
C1865      H1869   1.084       .  S
C1866      O1870   1.372       .  S
O1868      H1872   0.992       .  S
O1870      H1871   0.992       .  S
C1873      C1874   1.406       .  A
C1873      C1878   1.412       .  A
C1874      C1875   1.403       .  A
C1874      H1879   1.083       .  S
C1875      C1876   1.410       .  A
C1875      O1880   1.372       .  S
C1876      C1877   1.400       .  A
C1877      C1878   1.394       .  A
C1877      H1881   1.084       .  S
C1878      O1882   1.372       .  S
O1880      H1884   0.992       .  S
O1882      H1883   0.991       .  S
C1885      C1886   1.401       .  A
C1885      C1890   1.407       .  A
C1886      C1887   1.403       .  A
C1886      H1891   1.084       .  S
C1887      C1888   1.414       .  A
C1887      O1892   1.372       .  S
C1888      C1889   1.408       .  A
C1889      C1890   1.400       .  A
C1889      H1893   1.083       .  S
C1890      O1894   1.374       .  S
O1892      H1896   0.992       .  S
O1894      H1895   0.991       .  S
C1897      C1898   1.400       .  A
C1898      C1899   1.402       .  A
C1898      H1903   1.076       .  S
C1899      C1900   1.416       .  A
C1899      O1904   1.371       .  S
C1901      C1902   1.399       .  A
C1901      H1905   1.083       .  S
C1902      O1906   1.372       .  S
O1904      H1908   0.991       .  S
O1906      H1907   0.992       .  S
C1909      C1910   1.403       .  A
C1909      C2566   1.404       .  A
C1910      C1911   1.403       .  A
C1910      H1915   1.082       .  S
C1911      C2564   1.416       .  A
C1911      O1916   1.371       .  S
C1912      C2563   1.409       .  A
C1912      C1913   1.405   1_565  A
C1913      C1914   1.401       .  A
C1913      H1917   1.083       .  S
C1914      C2561   1.406   1_545  A
C1914      O1918   1.367       .  S
O1916      H1920   0.991       .  S
O1918      H1919   0.992       .  S
C1921      C1922   1.406       .  A
C1921      C1926   1.412       .  A
C1922      C1923   1.396       .  A
C1922      H1927   1.082       .  S
C1923      C1924   1.409       .  A
C1923      O1928   1.373       .  S
C1924      C1925   1.404       .  A
C1925      C1926   1.410       .  A
C1925      H1929   1.083       .  S
C1926      O1930   1.372       .  S
O1928      H1932   0.992       .  S
O1930      H1931   0.992       .  S
C1933      C1934   1.402       .  A
C1934      C1935   1.399       .  A
C1934      H1939   1.083       .  S
C1935      C1936   1.413       .  A
C1935      O1940   1.373       .  S
C1937      C1938   1.403       .  A
C1937      H1941   1.083       .  S
C1938      O1942   1.371       .  S
O1940      H1944   0.992       .  S
O1942      H1943   0.992       .  S
C1945      C1966   1.495       .  S
C1945      C1946   1.407       .  A
C1945      C2602   1.405   1_545  A
C1946      C1947   1.404       .  A
C1946      H1951   1.084       .  S
C1947      C1948   1.410       .  A
C1947      O1952   1.372       .  S
C1948      C2601   1.405   1_545  A
C1949      C2600   1.409       .  A
C1949      C1950   1.399       .  A
C1949      H1953   1.082       .  S
C1950      C2597   1.402       .  A
C1950      O1954   1.369       .  S
O1952      H1956   0.992       .  S
O1954      H1955   0.991       .  S
C1957      H1958   1.111       .  S
C1957      C1962   1.543   1_455  S
C1959      H1960   1.109       .  S
C1959      C1966   1.547       .  S
C1961      C1964   1.383       .  D
C1961      C2537   1.486       .  S
C1962      C1965   1.379   1_655  D
C1963      C1966   1.377   1_565  D
C1963      C2561   1.495       .  S
C1964      C2573   1.503       .  S
O1967      C1983   1.278       .  A
O1967     Zn1973   2.028       .  S
C1968      O1984   1.271       .  A
C1968      O1981   1.272       .  A
C1968      C2480   1.469       .  S
O1969      C1982   1.276       .  A
O1969     Cd1976   2.082       .  S
O1970      C1988   1.273       .  A
O1970     Cd1979   2.041   1_556  S
O1971      C1985   1.275       .  A
O1971     Cd1975   2.071       .  S
O1972      C1983   1.272       .  A
O1972     Cd1975   2.050       .  S
Zn1973     O1984   2.004       .  S
Zn1973     O1986   2.017   1_554  S
Zn1973     O1978   1.925   1_554  S
O1974      C1985   1.270       .  A
O1974     Cd1979   2.046       .  S
Cd1975     O1977   2.056   1_554  S
Cd1975     O1978   1.979   1_554  S
Cd1976     O1980   2.071       .  S
Cd1976     O1989   2.078       .  S
Cd1976     O1978   1.998       .  S
O1977      C1987   1.275       .  A
O1978     Cd1979   1.975   1_556  S
Cd1979     O1981   2.044       .  S
O1980      C1987   1.276       .  A
C1982      O1986   1.276       .  A
C1982      C2465   1.473       .  S
C1983      C2528   1.470       .  S
C1985      C2513   1.473       .  S
C1987      C2501   1.476       .  S
C1988      O1989   1.276       .  A
C1988      C2492   1.475       .  S
C1990      C2540   1.494       .  S
C1990      C1991   1.416       .  A
C1990      C1995   1.412       .  A
C1991      C1992   1.405       .  A
C1991      H1996   1.081       .  S
C1992      C2456   1.473       .  S
C1992      C1993   1.393       .  A
C1993      C1994   1.392       .  A
C1993      H1997   1.085       .  S
C1994      C2489   1.466       .  S
C1994      C1995   1.399       .  A
C1995      H1998   1.083       .  S
O1999      C2015   1.272       .  A
O1999     Zn2005   2.018       .  S
C2000      O2016   1.277       .  A
C2000      O2013   1.274       .  A
C2000      C2444   1.476       .  S
O2001      C2014   1.276       .  A
O2001     Cd2008   2.071       .  S
O2002      C2020   1.276       .  A
O2002     Cd2011   2.071   1_556  S
O2003      C2017   1.274       .  A
O2003     Cd2007   2.070       .  S
O2004      C2015   1.276       .  A
O2004     Cd2007   2.081       .  S
Zn2005     O2016   2.022       .  S
Zn2005     O2018   2.018   1_554  S
Zn2005     O2010   1.924   1_554  S
O2006      C2017   1.277       .  A
O2006     Cd2011   2.077       .  S
Cd2007     O2009   2.057   1_554  S
Cd2007     O2010   1.979   1_554  S
Cd2008     O2012   2.077       .  S
Cd2008     O2021   2.084       .  S
Cd2008     O2010   2.003       .  S
O2009      C2019   1.274       .  A
O2010     Cd2011   1.977   1_556  S
Cd2011     O2013   2.062       .  S
O2012      C2019   1.275       .  A
C2014      O2018   1.277       .  A
C2014      C2417   1.483       .  S
C2015      C2429   1.476       .  S
C2017      C2405   1.468       .  S
C2019      C2396   1.469       .  S
C2020      O2021   1.277       .  A
C2020      C2453   1.481       .  S
C2022      C2384   1.486       .  S
C2022      C2023   1.414       .  A
C2022      C2027   1.408       .  A
C2023      C2024   1.405       .  A
C2023      H2028   1.083       .  S
C2024      C2408   1.478       .  S
C2024      C2025   1.395       .  A
C2025      C2026   1.395       .  A
C2025      H2029   1.085       .  S
C2026      C2477   1.473       .  S
C2026      C2027   1.398       .  A
C2027      H2030   1.083       .  S
C2031      C2564   1.503       .  S
C2031      C2032   1.417       .  A
C2032      C2033   1.406       .  A
C2032      H2037   1.082       .  S
C2033      C2468   1.479       .  S
C2033      C2034   1.394       .  A
C2034      H2038   1.085       .  S
C2035      C2420   1.468       .  S
C2035      C2036   1.400       .  A
C2036      H2039   1.083       .  S
C2040      C2369   1.501       .  S
C2040      C2041   1.419       .  A
C2041      C2042   1.412       .  A
C2041      H2046   1.082       .  S
C2042      C2432   1.489       .  S
C2042      C2043   1.397       .  A
C2043      H2047   1.085       .  S
C2044      C2516   1.478       .  S
C2044      C2045   1.398       .  A
C2045      H2048   1.081       .  S
C2049      C2552   1.489       .  S
C2049      C2054   1.410       .  A
C2050      C2051   1.402       .  A
C2050      H2055   1.084       .  S
C2051      C2504   1.469       .  S
C2052      C2053   1.398       .  A
C2052      H2056   1.085       .  S
C2053      C2393   1.474       .  S
C2053      C2054   1.402       .  A
C2054      H2057   1.083       .  S
C2058      C2357   1.487       .  S
C2058      C2059   1.411       .  A
C2059      C2060   1.402       .  A
C2059      H2064   1.079       .  S
C2060      C2441   1.478       .  S
C2060      C2061   1.394       .  A
C2061      H2065   1.084       .  S
C2062      C2525   1.484       .  S
C2062      C2063   1.405       .  A
C2063      H2066   1.077       .  S
O2067      C2083   1.276       .  A
O2067     Zn2073   2.025       .  S
C2068      O2084   1.277       .  A
C2068      O2081   1.273       .  A
C2068      C2336   1.472       .  S
O2069      C2082   1.276       .  A
O2069     Cd2076   2.090       .  S
O2070      C2088   1.279       .  A
O2070     Cd2079   2.074       .  S
O2071      C2085   1.273       .  A
O2071     Cd2075   2.058       .  S
O2072      C2083   1.276       .  A
O2072     Cd2075   2.066       .  S
Zn2073     O2084   2.023       .  S
Zn2073     O2086   2.006       .  S
Zn2073     O2078   1.918       .  S
O2074      C2085   1.279       .  A
O2074     Cd2079   2.096       .  S
Cd2075     O2077   2.063       .  S
Cd2075     O2078   1.968       .  S
Cd2076     O2080   2.086       .  S
Cd2076     O2089   2.080       .  S
Cd2076     O2078   2.001       .  S
O2077      C2087   1.276       .  A
O2078     Cd2079   1.985       .  S
Cd2079     O2081   2.064       .  S
O2080      C2087   1.278       .  A
C2082      O2086   1.274       .  A
C2082      C2285   1.484       .  S
C2083      C2297   1.480       .  S
C2085      C2321   1.487       .  S
C2087      C2312   1.491       .  S
C2088      O2089   1.278       .  A
C2088      C2345   1.486       .  S
C2090      C2576   1.490       .  S
C2090      C2091   1.414       .  A
C2090      C2095   1.407       .  A
C2091      C2092   1.405       .  A
C2091      H2096   1.083       .  S
C2092      C2348   1.474       .  S
C2092      C2093   1.397       .  A
C2093      C2094   1.395       .  A
C2093      H2097   1.085       .  S
C2094      C2273   1.468       .  S
C2094      C2095   1.399       .  A
C2095      H2098   1.083       .  S
O2099      C2115   1.277       .  A
O2099     Zn2105   2.020       .  S
C2100      O2116   1.274       .  A
C2100      O2113   1.275       .  A
C2100      C2225   1.474       .  S
O2101      C2114   1.277       .  A
O2101     Cd2108   2.076       .  S
O2102      C2120   1.272       .  A
O2102     Cd2111   2.040       .  S
O2103      C2117   1.279       .  A
O2103     Cd2107   2.087       .  S
O2104      C2115   1.274       .  A
O2104     Cd2107   2.061       .  S
Zn2105     O2116   2.027       .  S
Zn2105     O2118   2.015       .  S
Zn2105     O2110   1.919       .  S
O2106      C2117   1.275       .  A
O2106     Cd2111   2.069       .  S
Cd2107     O2109   2.061       .  S
Cd2107     O2110   1.970       .  S
Cd2108     O2112   2.077       .  S
Cd2108     O2121   2.083       .  S
Cd2108     O2110   1.996       .  S
O2109      C2119   1.275       .  A
O2110     Cd2111   1.960       .  S
Cd2111     O2113   2.057       .  S
O2112      C2119   1.275       .  A
C2114      O2118   1.277       .  A
C2114      C2213   1.486       .  S
C2115      C2261   1.473       .  S
C2117      C2249   1.481       .  S
C2119      C2237   1.466       .  S
C2120      O2121   1.277       .  A
C2120      C2276   1.473       .  S
C2122      C2600   1.496       .  S
C2122      C2127   1.413       .  A
C2123      C2124   1.404       .  A
C2123      H2128   1.084       .  S
C2124      C2240   1.478       .  S
C2125      C2126   1.398       .  A
C2125      H2129   1.085       .  S
C2126      C2309   1.479       .  S
C2126      C2127   1.404       .  A
C2127      H2130   1.082       .  S
C2131      C2588   1.498       .  S
C2131      C2136   1.415       .  A
C2132      C2133   1.405       .  A
C2132      H2137   1.083       .  S
C2133      C2288   1.473       .  S
C2134      C2135   1.393       .  A
C2134      H2138   1.086       .  S
C2135      C2216   1.478       .  S
C2135      C2136   1.404       .  A
C2136      H2139   1.083       .  S
C2140      C2201   1.501       .  S
C2140      C2141   1.416   1_455  A
C2141      C2142   1.406       .  A
C2141      H2146   1.082       .  S
C2142      C2333   1.484       .  S
C2142      C2143   1.396   1_655  A
C2143      H2147   1.084       .  S
C2144      C2264   1.478       .  S
C2144      C2145   1.399       .  A
C2145      H2148   1.081       .  S
C2149      C2192   1.496       .  S
C2149      C2150   1.416       .  A
C2149      C2154   1.412       .  A
C2150      C2151   1.410       .  A
C2150      H2155   1.082       .  S
C2151      C2324   1.492       .  S
C2151      C2152   1.398       .  A
C2152      C2153   1.397       .  A
C2152      H2156   1.083       .  S
C2153      C2228   1.484       .  S
C2153      C2154   1.404       .  A
C2154      H2157   1.083       .  S
C2158      C2177   1.484       .  S
C2158      C2159   1.408       .  A
C2159      C2160   1.402       .  A
C2159      H2164   1.083       .  S
C2160      C2300   1.484       .  S
C2160      C2161   1.399       .  A
C2161      H2165   1.083       .  S
C2162      C2252   1.488       .  S
C2162      C2163   1.412       .  A
C2163      H2166   1.083       .  S
C2167      H2168   1.110       .  S
C2167      C2173   1.528       .  S
C2167      C2172   1.510   1_455  S
C2169      H2170   1.107       .  S
C2169      C2175   1.569   1_545  S
C2169      C2176   1.552   1_545  S
C2171      C2174   1.380       .  D
C2171      C2381   1.485       .  S
C2172      C2175   1.323       .  D
C2172      C2360   1.375       .  S
C2173      C2176   1.383   1_455  D
C2173      C2372   1.498   1_455  S
C2174      C2189   1.492       .  S
C2175      C2180   1.543   1_565  S
C2176      C2204   1.488   1_655  S
C2177      C2178   1.400       .  A
C2178      C2179   1.509       .  A
C2178      H2183   1.084       .  S
C2179      O2184   2.176       .  S
C2180      C2181   1.409       .  A
C2181      C2182   1.372       .  A
C2181      H2185   1.079       .  S
C2182      O2186   1.373       .  S
O2184      H2188   1.021       .  S
O2186      H2187   0.992       .  S
C2189      C2190   1.403       .  A
C2189      C2194   1.408       .  A
C2190      C2191   1.408       .  A
C2190      H2195   1.084       .  S
C2191      C2192   1.413       .  A
C2191      O2196   1.372       .  S
C2192      C2193   1.406       .  A
C2193      C2194   1.404       .  A
C2193      H2197   1.083       .  S
C2194      O2198   1.373       .  S
O2196      H2200   0.992       .  S
O2198      H2199   0.992       .  S
C2201      C2202   1.414   1_455  A
C2202      C2203   1.406       .  A
C2202      H2207   1.082       .  S
C2203      C2204   1.404   1_655  A
C2203      O2208   1.371       .  S
C2205      C2206   1.395       .  A
C2205      H2209   1.084       .  S
C2206      O2210   1.373       .  S
O2208      H2212   0.991       .  S
O2210      H2211   0.992       .  S
C2213      C2214   1.406       .  A
C2213      C2218   1.415       .  A
C2214      C2215   1.394       .  A
C2214      H2219   1.083       .  S
C2215      C2216   1.408       .  A
C2215      O2220   1.372       .  S
C2216      C2217   1.402       .  A
C2217      C2218   1.405       .  A
C2217      H2221   1.083       .  S
C2218      O2222   1.371       .  S
O2220      H2224   0.992       .  S
O2222      H2223   0.992       .  S
C2225      C2226   1.400       .  A
C2225      C2230   1.409       .  A
C2226      C2227   1.396       .  A
C2226      H2231   1.084       .  S
C2227      C2228   1.411       .  A
C2227      O2232   1.374       .  S
C2228      C2229   1.405       .  A
C2229      C2230   1.405       .  A
C2229      H2233   1.083       .  S
C2230      O2234   1.371       .  S
O2232      H2236   0.992       .  S
O2234      H2235   0.992       .  S
C2237      C2238   1.400       .  A
C2237      C2242   1.406       .  A
C2238      C2239   1.403       .  A
C2238      H2243   1.084       .  S
C2239      C2240   1.411       .  A
C2239      O2244   1.373       .  S
C2240      C2241   1.402       .  A
C2241      C2242   1.396       .  A
C2241      H2245   1.084       .  S
C2242      O2246   1.372       .  S
O2244      H2248   0.991       .  S
O2246      H2247   0.992       .  S
C2249      C2250   1.401       .  A
C2249      C2254   1.411       .  A
C2250      C2251   1.400       .  A
C2250      H2255   1.084       .  S
C2251      C2252   1.413       .  A
C2251      O2256   1.374       .  S
C2252      C2253   1.403       .  A
C2253      C2254   1.406       .  A
C2253      H2257   1.083       .  S
C2254      O2258   1.371       .  S
O2256      H2260   0.992       .  S
O2258      H2259   0.992       .  S
C2261      C2262   1.401       .  A
C2261      C2266   1.412       .  A
C2262      C2263   1.396       .  A
C2262      H2267   1.084       .  S
C2263      C2264   1.410       .  A
C2263      O2268   1.372       .  S
C2264      C2265   1.402       .  A
C2265      C2266   1.400       .  A
C2265      H2269   1.084       .  S
C2266      O2270   1.372       .  S
O2268      H2272   0.992       .  S
O2270      H2271   0.992       .  S
C2273      C2274   1.397       .  A
C2273      C2278   1.407       .  A
C2274      C2275   1.393       .  A
C2274      H2279   1.084       .  S
C2275      C2276   1.412       .  A
C2275      O2280   1.373       .  S
C2276      C2277   1.405       .  A
C2277      C2278   1.402       .  A
C2277      H2281   1.083       .  S
C2278      O2282   1.371       .  S
O2280      H2284   0.993       .  S
O2282      H2283   0.992       .  S
C2285      C2286   1.407       .  A
C2285      C2290   1.413       .  A
C2286      C2287   1.406       .  A
C2286      H2291   1.083       .  S
C2287      C2288   1.408       .  A
C2287      O2292   1.371       .  S
C2288      C2289   1.399       .  A
C2289      C2290   1.396       .  A
C2289      H2293   1.084       .  S
C2290      O2294   1.373       .  S
O2292      H2296   0.992       .  S
O2294      H2295   0.993       .  S
C2297      C2298   1.405       .  A
C2297      C2302   1.408       .  A
C2298      C2299   1.402       .  A
C2298      H2303   1.084       .  S
C2299      C2300   1.410       .  A
C2299      O2304   1.371       .  S
C2300      C2301   1.405       .  A
C2301      C2302   1.399       .  A
C2301      H2305   1.084       .  S
C2302      O2306   1.372       .  S
O2304      H2308   0.991       .  S
O2306      H2307   0.992       .  S
C2309      C2310   1.400       .  A
C2309      C2314   1.406       .  A
C2310      C2311   1.394       .  A
C2310      H2315   1.084       .  S
C2311      C2312   1.415       .  A
C2311      O2316   1.372       .  S
C2312      C2313   1.411       .  A
C2313      C2314   1.406       .  A
C2313      H2317   1.083       .  S
C2314      O2318   1.371       .  S
O2316      H2320   0.992       .  S
O2318      H2319   0.992       .  S
C2321      C2322   1.408       .  A
C2321      C2326   1.408       .  A
C2322      C2323   1.402       .  A
C2322      H2327   1.084       .  S
C2323      C2324   1.408       .  A
C2323      O2328   1.371       .  S
C2324      C2325   1.410       .  A
C2325      C2326   1.403       .  A
C2325      H2329   1.084       .  S
C2326      O2330   1.372       .  S
O2328      H2332   0.991       .  S
O2330      H2331   0.992       .  S
C2333      C2334   1.406       .  A
C2333      C2338   1.409       .  A
C2334      C2335   1.394       .  A
C2334      H2339   1.084       .  S
C2335      C2336   1.405       .  A
C2335      O2340   1.372       .  S
C2336      C2337   1.405       .  A
C2337      C2338   1.405       .  A
C2337      H2341   1.083       .  S
C2338      O2342   1.371       .  S
O2340      H2344   0.992       .  S
O2342      H2343   0.992       .  S
C2345      C2346   1.407       .  A
C2345      C2350   1.414       .  A
C2346      C2347   1.397       .  A
C2346      H2351   1.084       .  S
C2347      C2348   1.405       .  A
C2347      O2352   1.372       .  S
C2348      C2349   1.402       .  A
C2349      C2350   1.405       .  A
C2349      H2353   1.083       .  S
C2350      O2354   1.371       .  S
O2352      H2356   0.992       .  S
O2354      H2355   0.992       .  S
C2357      C2358   1.947       .  A
C2358      C2359   1.913       .  A
C2358      H2363   1.080       .  S
C2359      C2360   1.925       .  A
C2359      O2364   1.369       .  S
C2361      C2362   1.921       .  A
C2361      H2365   1.081       .  S
C2362      O2366   1.367       .  S
O2364      H2368   0.990       .  S
O2366      H2367   0.990       .  S
C2369      C2370   1.410       .  A
C2370      C2371   1.407       .  A
C2370      H2375   1.083       .  S
C2371      O2376   1.371       .  S
C2372      C2373   1.403       .  A
C2373      C2374   1.399       .  A
C2373      H2377   1.083       .  S
C2374      O2378   1.373       .  S
O2376      H2380   0.992       .  S
O2378      H2379   0.992       .  S
C2381      C2382   1.402       .  A
C2381      C2386   1.407       .  A
C2382      C2383   1.398       .  A
C2382      H2387   1.083       .  S
C2383      C2384   1.412       .  A
C2383      O2388   1.373       .  S
C2384      C2385   1.406       .  A
C2385      C2386   1.401       .  A
C2385      H2389   1.083       .  S
C2386      O2390   1.371       .  S
O2388      H2392   0.992       .  S
O2390      H2391   0.992       .  S
C2393      C2394   1.401       .  A
C2393      C2398   1.409       .  A
C2394      C2395   1.395       .  A
C2394      H2399   1.084       .  S
C2395      C2396   1.408       .  A
C2395      O2400   1.372       .  S
C2396      C2397   1.403       .  A
C2397      C2398   1.403       .  A
C2397      H2401   1.084       .  S
C2398      O2402   1.372       .  S
O2400      H2404   0.992       .  S
O2402      H2403   0.992       .  S
C2405      C2406   1.398       .  A
C2405      C2410   1.408       .  A
C2406      C2407   1.395       .  A
C2406      H2411   1.084       .  S
C2407      C2408   1.410       .  A
C2407      O2412   1.373       .  S
C2408      C2409   1.404       .  A
C2409      C2410   1.405       .  A
C2409      H2413   1.083       .  S
C2410      O2414   1.371       .  S
O2412      H2416   0.991       .  S
O2414      H2415   0.992       .  S
C2417      C2418   1.409       .  A
C2417      C2422   1.413       .  A
C2418      C2419   1.403       .  A
C2418      H2423   1.083       .  S
C2419      C2420   1.405       .  A
C2419      O2424   1.372       .  S
C2420      C2421   1.398       .  A
C2421      C2422   1.395       .  A
C2421      H2425   1.084       .  S
C2422      O2426   1.372       .  S
O2424      H2428   0.992       .  S
O2426      H2427   0.992       .  S
C2429      C2430   1.407       .  A
C2429      C2434   1.404       .  A
C2430      C2431   1.408       .  A
C2430      H2435   1.083       .  S
C2431      C2432   1.409       .  A
C2431      O2436   1.371       .  S
C2432      C2433   1.408       .  A
C2433      C2434   1.396       .  A
C2433      H2437   1.084       .  S
C2434      O2438   1.372       .  S
O2436      H2440   0.991       .  S
O2438      H2439   0.992       .  S
C2441      C2442   1.403       .  A
C2441      C2446   1.408       .  A
C2442      C2443   1.400       .  A
C2442      H2447   1.084       .  S
C2443      C2444   1.410       .  A
C2443      O2448   1.372       .  S
C2444      C2445   1.403       .  A
C2445      C2446   1.399       .  A
C2445      H2449   1.084       .  S
C2446      O2450   1.373       .  S
O2448      H2452   0.991       .  S
O2450      H2451   0.992       .  S
C2453      C2454   1.405       .  A
C2453      C2458   1.410       .  A
C2454      C2455   1.398       .  A
C2454      H2459   1.084       .  S
C2455      C2456   1.406       .  A
C2455      O2460   1.372       .  S
C2456      C2457   1.403       .  A
C2457      C2458   1.404       .  A
C2457      H2461   1.084       .  S
C2458      O2462   1.371       .  S
O2460      H2464   0.991       .  S
O2462      H2463   0.991       .  S
C2465      C2466   1.403       .  A
C2465      C2470   1.406       .  A
C2466      C2467   1.397       .  A
C2466      H2471   1.084       .  S
C2467      C2468   1.407       .  A
C2467      O2472   1.372       .  S
C2468      C2469   1.407       .  A
C2469      C2470   1.405       .  A
C2469      H2473   1.083       .  S
C2470      O2474   1.371       .  S
O2472      H2476   0.992       .  S
O2474      H2475   0.992       .  S
C2477      C2478   1.403       .  A
C2477      C2482   1.408       .  A
C2478      C2479   1.393       .  A
C2478      H2483   1.084       .  S
C2479      C2480   1.407       .  A
C2479      O2484   1.372       .  S
C2480      C2481   1.404       .  A
C2481      C2482   1.399       .  A
C2481      H2485   1.084       .  S
C2482      O2486   1.372       .  S
O2484      H2488   0.992       .  S
O2486      H2487   0.991       .  S
C2489      C2490   1.397       .  A
C2489      C2494   1.406       .  A
C2490      C2491   1.392       .  A
C2490      H2495   1.084       .  S
C2491      C2492   1.412       .  A
C2491      O2496   1.372       .  S
C2492      C2493   1.405       .  A
C2493      C2494   1.403       .  A
C2493      H2497   1.083       .  S
C2494      O2498   1.371       .  S
O2496      H2500   0.991       .  S
O2498      H2499   0.992       .  S
C2501      C2502   1.405       .  A
C2501      C2506   1.411       .  A
C2502      C2503   1.394       .  A
C2502      H2507   1.084       .  S
C2503      C2504   1.404       .  A
C2503      O2508   1.372       .  S
C2504      C2505   1.401       .  A
C2505      C2506   1.401       .  A
C2505      H2509   1.084       .  S
C2506      O2510   1.372       .  S
O2508      H2512   0.992       .  S
O2510      H2511   0.992       .  S
C2513      C2514   1.405       .  A
C2513      C2518   1.405       .  A
C2514      C2515   1.398       .  A
C2514      H2519   1.083       .  S
C2515      C2516   1.407       .  A
C2515      O2520   1.372       .  S
C2516      C2517   1.405       .  A
C2517      C2518   1.397       .  A
C2517      H2521   1.084       .  S
C2518      O2522   1.372       .  S
O2520      H2524   0.992       .  S
O2522      H2523   0.992       .  S
C2525      C2526   1.406       .  A
C2525      C2530   1.411       .  A
C2526      C2527   1.401       .  A
C2526      H2531   1.083       .  S
C2527      C2528   1.408       .  A
C2527      O2532   1.372       .  S
C2528      C2529   1.400       .  A
C2529      C2530   1.395       .  A
C2529      H2533   1.084       .  S
C2530      O2534   1.372       .  S
O2532      H2536   0.992       .  S
O2534      H2535   0.991       .  S
C2537      C2538   1.400       .  A
C2537      C2542   1.407       .  A
C2538      C2539   1.404       .  A
C2538      H2543   1.084       .  S
C2539      C2540   1.415       .  A
C2539      O2544   1.372       .  S
C2540      C2541   1.408       .  A
C2541      C2542   1.400       .  A
C2541      H2545   1.083       .  S
C2542      O2546   1.374       .  S
O2544      H2548   0.992       .  S
O2546      H2547   0.991       .  S
C2549      C2550   1.398       .  A
C2550      C2551   1.399       .  A
C2550      H2555   1.074       .  S
C2551      C2552   1.413       .  A
C2551      O2556   1.372       .  S
C2553      C2554   1.400       .  A
C2553      H2557   1.083       .  S
C2554      O2558   1.372       .  S
O2556      H2560   0.991       .  S
O2558      H2559   0.992       .  S
C2561      C2562   1.406       .  A
C2562      C2563   1.397       .  A
C2562      H2567   1.081       .  S
C2563      O2568   1.372       .  S
C2564      C2565   1.409       .  A
C2565      C2566   1.404       .  A
C2565      H2569   1.082       .  S
C2566      O2570   1.369       .  S
O2568      H2572   0.991       .  S
O2570      H2571   0.993       .  S
C2573      C2574   1.407       .  A
C2573      C2578   1.410       .  A
C2574      C2575   1.398       .  A
C2574      H2579   1.082       .  S
C2575      C2576   1.409       .  A
C2575      O2580   1.373       .  S
C2576      C2577   1.405       .  A
C2577      C2578   1.408       .  A
C2577      H2581   1.083       .  S
C2578      O2582   1.371       .  S
O2580      H2584   0.992       .  S
O2582      H2583   0.992       .  S
C2585      C2586   1.406       .  A
C2586      C2587   1.402       .  A
C2586      H2591   1.083       .  S
C2587      C2588   1.412       .  A
C2587      O2592   1.373       .  S
C2589      C2590   1.404       .  A
C2589      H2593   1.083       .  S
C2590      O2594   1.371       .  S
O2592      H2596   0.992       .  S
O2594      H2595   0.992       .  S
C2597      C2598   1.403       .  A
C2598      C2599   1.402       .  A
C2598      H2603   1.084       .  S
C2599      C2600   1.414       .  A
C2599      O2604   1.372       .  S
C2601      C2602   1.400       .  A
C2601      H2605   1.083       .  S
C2602      O2606   1.365       .  S
O2604      H2608   0.992       .  S
O2606      H2607   0.991       .  S
