geometry optimzed in LAMMPS
_audit_creation_date              2020-11-30 
_audit_creation_method            'lammps2cif' 
_symmetry_space_group_name_H-M    'P1' 
_symmetry_Int_Tables_number       1 
_symmetry_cell_setting            triclinic 
loop_ 
_symmetry_equiv_pos_as_xyz 
  x,y,z 
_cell_length_a                    27.65887759 
_cell_length_b                    28.147782793017292 
_cell_length_c                    27.742018736534583 
_cell_angle_alpha                 90.7017151232728 
_cell_angle_beta                  89.79852200981715 
_cell_angle_gamma                 90.59727287676643 
loop_ 
_atom_site_label 
_atom_site_type_symbol 
_atom_site_fract_x 
_atom_site_fract_y 
_atom_site_fract_z 
_atom_site_charge 
C1          C  0.84526339  0.83128090  0.83869036     0.86300
C2          C  0.88345720  0.80671162  0.86915862    -0.53900
C3          C  0.91054700  0.83733288  0.89627595     0.09300
C4          C  0.89705892  0.88915811  0.89224241     0.20200
C5          C  0.81578478  0.86169104  0.87470093    -0.54600
C6          C  0.84321430  0.89010398  0.90396725     0.09400
C7          C  0.87271235  0.86957471  0.81011614    -0.54100
C8          C  0.90002348  0.89939748  0.83846279     0.09900
H9          H  0.88844012  0.76847424  0.86954223     0.14500
H10         H  0.91963921  0.91325107  0.91510645     0.00200
H11         H  0.77665800  0.86270146  0.87546638     0.14800
H12         H  0.87089559  0.87346882  0.77158667     0.14600
C13         C  0.97532247  0.96694603  0.48495965     0.42300
N14         N  0.95187295  0.91353109  0.43149388     0.01200
C15         C  0.73898481  0.92507637  0.29043659    -0.06700
H16         H  0.71015824  0.89548621  0.46876509     0.06700
C17         C  0.79762711  0.73187065  0.45071122    -0.07000
Co18       Co  0.86232261  0.94483572  0.37774934     0.74200
N19         N  0.77543888  0.90610751  0.42764917    -0.26200
Co20       Co  0.77452824  0.85594459  0.37151916     0.74100
C21         C  0.75266758  0.74645960  0.47470714     0.42400
N22         N  0.91472427  0.77078693  0.42176259     0.00800
N23         N  0.77386744  0.79847685  0.42078471     0.00900
N24         N  0.79430656  0.98412324  0.29642111    -0.47000
H25         H  0.90912484  0.01294059  0.46880629     0.06700
N26         N  0.80972771  0.93904671  0.42977004     0.01200
N27         N  0.77926920  0.80731638  0.31445173     0.01000
C28         C  0.76706759  0.77014089  0.24762845     0.42600
N29         N  0.94734910  0.80515052  0.42650157    -0.25700
C30         C  0.92435004  0.97433780  0.29053063    -0.06600
N31         N  0.98714460  0.92511702  0.46264463    -0.46800
N32         N  0.75049445  0.80531079  0.27657140    -0.47000
C33         C  0.96794261  0.95653825  0.26784689     0.42300
N34         N  0.80591647  0.94775531  0.32476911     0.01200
N35         N  0.95702839  0.80520527  0.32169694    -0.25700
N36         N  0.91759719  0.94586274  0.43087996    -0.26200
N37         N  0.92287715  0.77240536  0.31633896     0.00800
H38         H  0.02825129  0.81280089  0.28975142     0.06700
H39         H  0.83044167  0.71942183  0.26147168     0.06800
N40         N  0.77331850  0.91317808  0.32261334    -0.26200
N41         N  0.80779294  0.76589099  0.41807441    -0.25800
N42         N  0.95064780  0.91194177  0.32625355     0.01200
C43         C  0.76224278  0.95781345  0.48748996     0.42600
C44         C  0.97484340  0.79610015  0.46453137    -0.07100
N45         N  0.81350319  0.77495466  0.31257371    -0.25800
H46         H  0.81852343  0.70014527  0.45622191     0.06700
N47         N  0.80322425  0.97017518  0.46481123    -0.47100
H48         H  0.00617229  0.81655452  0.47597541     0.06700
C49         C  0.97923295  0.75025706  0.26537856     0.42400
C50         C  0.92893836  0.98037608  0.46347891    -0.06600
Co51       Co  0.95258865  0.85901388  0.37677110     0.73800
N52         N  0.91911976  0.73742231  0.45431084    -0.46800
C53         C  0.75250884  0.97242563  0.27282529     0.42700
N54         N  0.98314183  0.91866675  0.29221403    -0.46800
Co55       Co  0.86460220  0.77014173  0.36682168     0.73900
C56         C  0.80830490  0.74922035  0.27204278    -0.07100
C57         C  0.74366768  0.91479969  0.46311186    -0.06700
N58         N  0.91611429  0.94414295  0.32620124    -0.26200
N59         N  0.74025445  0.78811395  0.45384420    -0.46900
H60         H  0.70636637  0.90477744  0.28308397     0.06700
C61         C  0.99402148  0.79397142  0.29157859    -0.07100
Cl62       Cl  0.86355360  0.85754921  0.37313851    -0.50100
C63         C  0.95548093  0.75167062  0.48314868     0.42500
H64         H  0.90347928  0.00562409  0.28289160     0.06700
N65         N  0.93486149  0.73903940  0.28374097    -0.46800
C66         C  0.77550658  0.49465460  0.94453529     0.42300
N67         N  0.78346677  0.42449696  0.91461746     0.01200
C68         C  0.98961589  0.29154789  0.92949413    -0.06700
H69         H  0.02844761  0.46322912  0.90214254     0.06700
C70         C  0.92383458  0.44832735  0.73923713    -0.07000
Co71       Co  0.87123048  0.37765954  0.95294348     0.74200
N72         N  0.95987603  0.42685568  0.91312351    -0.26200
Co73       Co  0.95673880  0.37087512  0.86061334     0.74100
C74         C  0.96839227  0.47224067  0.75472339     0.42400
N75         N  0.80614027  0.41209325  0.77398674     0.00800
N76         N  0.95068061  0.41850145  0.80520223     0.00900
N77         N  0.93302653  0.29776658  0.98851612    -0.47000
H78         H  0.83963681  0.48395878  0.99631465     0.06700
N79         N  0.92721961  0.42983241  0.94788388     0.01200
N80         N  0.95651941  0.31508444  0.80695242     0.01000
C81         C  0.97848715  0.26088070  0.75424686     0.42600
N82         N  0.77295541  0.41191767  0.80829706    -0.25700
C83         C  0.80715858  0.29493651  0.99752308    -0.06600
N84         N  0.75699220  0.46310718  0.91230545    -0.46800
N85         N  0.99249448  0.28580494  0.79449745    -0.47000
C86         C  0.76292814  0.26823040  0.98460787     0.42300
N87         N  0.92451284  0.32690026  0.95282971     0.01200
N88         N  0.78059513  0.30907466  0.82022212    -0.25700
N89         N  0.81837140  0.42861923  0.94678487    -0.26200
N90         N  0.81361599  0.30773576  0.78585112     0.00800
H91         H  0.72283087  0.26218079  0.84022787     0.06700
H92         H  0.90899599  0.27108471  0.71064537     0.06800
N93         N  0.95707058  0.32406852  0.91785159    -0.26200
N94         N  0.91588153  0.41540696  0.77275344    -0.25800
N95         N  0.78148157  0.31937254  0.92849121     0.01200
C96         C  0.98161537  0.48324963  0.96813026     0.42600
C97         C  0.73703861  0.44151259  0.79540280    -0.07100
N98         N  0.92041168  0.31239224  0.77594506    -0.25800
H99         H  0.90262898  0.45293453  0.70698006     0.06700
N100        N  0.93911292  0.46236372  0.98135652    -0.47100
H101        H  0.70412971  0.44749684  0.81566703     0.06700
C102        C  0.77465309  0.24183123  0.77741827     0.42400
C103        C  0.81543663  0.47108655  0.96854482    -0.06600
Co104      Co  0.77840484  0.36601770  0.86824075     0.73800
N105        N  0.79475189  0.44105090  0.73792749    -0.46800
C106        C  0.97355510  0.27464415  0.97648866     0.42700
N107        N  0.74905940  0.28618889  0.94143506    -0.46800
Co108      Co  0.86375338  0.36210455  0.77639952     0.73900
C109        C  0.93058972  0.27889936  0.74225137    -0.07100
C110        C  0.99531175  0.45932126  0.92256892    -0.06700
N111        N  0.81612135  0.32501527  0.96075996    -0.26200
N112        N  0.98250939  0.45213308  0.79581660    -0.46900
H113        H  0.02184393  0.28315116  0.90903902     0.06700
C114        C  0.75340435  0.26959074  0.81721797    -0.07100
Cl115      Cl  0.86765121  0.36907090  0.86454426    -0.50100
C116        C  0.75149975  0.46148771  0.74868184     0.42500
H117        H  0.82848285  0.29260292  0.02999067     0.06700
N118        N  0.81127872  0.26843898  0.75971049    -0.46800
C119        C  0.48533115  0.98219792  0.97737905     0.42300
N120        N  0.43070803  0.96264101  0.92374543     0.01200
C121        C  0.28142459  0.75657038  0.92540230    -0.06700
H122        H  0.46290394  0.73056391  0.89253820     0.06700
C123        C  0.45484068  0.80807579  0.73821695    -0.07000
Co124      Co  0.37087977  0.87612864  0.95216432     0.74200
N125        N  0.41908656  0.79065715  0.91138488    -0.26200
Co126      Co  0.36563966  0.79180011  0.85928967     0.74100
C127        C  0.47030075  0.76012417  0.75179372     0.42400
N128        N  0.43348034  0.92661159  0.78180926     0.00800
N129        N  0.41778235  0.78733021  0.80358554     0.00900
N130        N  0.28685358  0.80783095  0.98812302    -0.47000
H131        H  0.46417743  0.91760616  0.02365240     0.06700
N132        N  0.42099577  0.82213778  0.94712087     0.01200
N133        N  0.31292608  0.80071656  0.80745160     0.01000
C134        C  0.24999350  0.79349860  0.76382517     0.42600
N135        N  0.43485880  0.95914097  0.81635142    -0.25700
C136        C  0.28440608  0.94182750  0.97823811    -0.06600
N137        N  0.46455004  0.99509214  0.93520522    -0.46800
N138        N  0.27363123  0.77451164  0.80122063    -0.47000
C139        C  0.26659384  0.98661769  0.96004626     0.42300
N140        N  0.31538600  0.82185282  0.95163114     0.01200
N141        N  0.32998476  0.97269464  0.80806818    -0.25700
N142        N  0.42693820  0.92881642  0.95617367    -0.26200
N143        N  0.32749989  0.93986060  0.77378634     0.00800
H144        H  0.29584558  0.04147447  0.81573272     0.06700
H145        H  0.27289311  0.85560892  0.71568973     0.06800
N146        N  0.31365912  0.79138485  0.91507860    -0.26200
N147        N  0.42207830  0.82165952  0.77194585    -0.25800
N148        N  0.32570984  0.96564112  0.91674652     0.01200
C149        C  0.48089390  0.77679812  0.95916370     0.42600
C150        C  0.47597627  0.98364218  0.81289834    -0.07100
N151        N  0.31703207  0.83472587  0.77529918    -0.25800
H152        H  0.46399196  0.82770139  0.70611728     0.06700
N153        N  0.45690659  0.81447315  0.97717382    -0.47100
H154        H  0.48590916  0.01388662  0.83526705     0.06700
C155        C  0.27727708  0.99422942  0.74948126     0.42400
C156        C  0.45999243  0.93798265  0.99116083    -0.06600
Co157      Co  0.38025775  0.96595048  0.86619320     0.73800
N158        N  0.47213472  0.92783410  0.75397667    -0.46800
C159        C  0.26340972  0.76695714  0.97407030     0.42700
N160        N  0.29363260  0.99955363  0.92222109    -0.46800
Co161      Co  0.37514834  0.88084837  0.77471103     0.73900
C162        C  0.27882507  0.83309761  0.74637595    -0.07100
C163        C  0.45575597  0.76084568  0.91576069    -0.06700
N164        N  0.32153332  0.93163131  0.94925367    -0.26200
N165        N  0.44485937  0.74977528  0.79233069    -0.46900
H166        H  0.27549677  0.72481284  0.90379578     0.06700
C167        C  0.30014799  0.00859664  0.79566209    -0.07100
Cl168      Cl  0.37268870  0.87869616  0.86321690    -0.50100
C169        C  0.50082379  0.96304167  0.77145500     0.42500
H170        H  0.27295257  0.92169625  0.00929190     0.06700
N171        N  0.29686071  0.95123920  0.73861370    -0.46800
C172        C  0.40099421  0.32411828  0.90566142     0.86300
C173        C  0.42759231  0.36994483  0.89270674    -0.53900
C174        C  0.40367877  0.39865104  0.86132026     0.09300
C175        C  0.35144716  0.38035063  0.85183696     0.20200
C176        C  0.35521892  0.34314073  0.93025747    -0.54600
C177        C  0.32955925  0.37323217  0.90238621     0.09400
C178        C  0.38357925  0.30106609  0.85911731    -0.54100
C179        C  0.35664342  0.32987356  0.83160102     0.09900
H180        H  0.46289215  0.37799231  0.90764822     0.14500
H181        H  0.32870320  0.40161388  0.82812623     0.00200
H182        H  0.34839673  0.34097137  0.96874625     0.14800
H183        H  0.38695705  0.26321764  0.85163179     0.14600
C184        C  0.40293466  0.84757237  0.40116242     0.86300
C185        C  0.36186650  0.87440664  0.42652531    -0.53900
C186        C  0.33442887  0.90003143  0.39567421     0.09300
C187        C  0.34921768  0.89588288  0.34274323     0.20200
C188        C  0.37546660  0.81722959  0.36313972    -0.54600
C189        C  0.34770693  0.84282774  0.33236532     0.09400
C190        C  0.43071740  0.88476647  0.37276301    -0.54100
C191        C  0.40309609  0.90823543  0.34076176     0.09900
H192        H  0.35435625  0.87327133  0.46478735     0.14500
H193        H  0.32590867  0.91733800  0.31943061     0.00200
H194        H  0.37537560  0.77861672  0.36247737     0.14800
H195        H  0.46968718  0.88935330  0.37497351     0.14600
C196        C  0.91027728  0.39807029  0.33603426     0.86300
C197        C  0.88782044  0.42930185  0.37526698    -0.53900
C198        C  0.85877206  0.40503422  0.40638582     0.09300
C199        C  0.85399653  0.35164084  0.39473651     0.20200
C200        C  0.93523230  0.35794503  0.36186769    -0.54600
C201        C  0.90564577  0.33219804  0.39081619     0.09400
C202        C  0.86538389  0.37499295  0.31191393    -0.54100
C203        C  0.83658941  0.35060212  0.34299797     0.09900
H204        H  0.88991964  0.46783810  0.37511214     0.14500
H205        H  0.82934729  0.33195016  0.41925215     0.00200
H206        H  0.97321159  0.34997372  0.35654669     0.14800
H207        H  0.85706587  0.37562113  0.27378398     0.14600
C208        C  0.00900721  0.22765140  0.72353689     0.42300
N209        N  0.05853571  0.20542933  0.66610773     0.01200
C210        C  0.05514324  0.98579216  0.53902579    -0.06700
H211        H  0.09307625  0.97375828  0.72051922     0.06700
C212        C  0.25297847  0.06861986  0.69365546    -0.07000
Co213      Co  0.03031900  0.11064421  0.62040093     0.74200
N214        N  0.07638771  0.03259800  0.67494134    -0.26200
Co215      Co  0.12582571  0.03164885  0.61791736     0.74100
C216        C  0.24389364  0.02233304  0.71678046     0.42400
N217        N  0.20292820  0.18239735  0.65818220     0.00800
N218        N  0.18611440  0.03847315  0.66574737     0.00900
N219        N  0.99387638  0.03773094  0.54169814    -0.47000
H220        H  0.96369339  0.15900847  0.71339697     0.06700
N221        N  0.04124115  0.06401011  0.67586518     0.01200
N222        N  0.17330763  0.03734360  0.56033118     0.01000
C223        C  0.21004106  0.02468916  0.49345432     0.42600
N224        N  0.16665123  0.21270488  0.65824389    -0.25700
C225        C  0.99161234  0.15831922  0.53041465    -0.06600
N226        N  0.04824503  0.24083685  0.69694330    -0.46800
N227        N  0.17557497  0.00771205  0.52330303    -0.47000
C228        C  0.00358669  0.20048112  0.50357138     0.45500
N229        N  0.02988108  0.05183075  0.57080362     0.01200
N230        N  0.16379208  0.20992553  0.55363715    -0.25700
N231        N  0.02777455  0.16943124  0.66956044    -0.26200
N232        N  0.20045295  0.18014617  0.55294711     0.00800
H233        H  0.15068495  0.27509806  0.51507446     0.06700
H234        H  0.25917606  0.09083603  0.50496668     0.06800
N235        N  0.06627958  0.02188854  0.57009588    -0.26200
N236        N  0.21598295  0.07530425  0.66247156    -0.25800
N237        N  0.05461062  0.19427176  0.56030849     0.01200
C238        C  0.02857426  0.02269197  0.73885449     0.42600
C239        C  0.17473996  0.24636258  0.69168454    -0.07100
N240        N  0.20461504  0.07292229  0.55697876    -0.25800
H241        H  0.28448883  0.09147338  0.69704356     0.06700
N242        N  0.01205253  0.05917024  0.71303024    -0.47100
H243        H  0.15224010  0.27680504  0.69908943     0.06700
C244        C  0.21981850  0.23269704  0.49825247     0.42400
C245        C  0.99495427  0.18047434  0.70415164    -0.06600
Co246      Co  0.11058184  0.20633390  0.60936353     0.73800
N247        N  0.23650439  0.19383161  0.68997845    -0.46800
C248        C  0.00673229  0.99611449  0.51977214     0.42700
N249        N  0.04253961  0.22159813  0.52404597    -0.46800
Co250      Co  0.20687618  0.12759252  0.60776315     0.73900
C251        C  0.23029094  0.06744184  0.51646756    -0.07100
C252        C  0.07108489  0.00429502  0.71312458    -0.06700
N253        N  0.02480101  0.15760020  0.56499440    -0.26200
N254        N  0.20197142  0.00594932  0.69659670    -0.46900
H255        H  0.07725503  0.95494952  0.53222631     0.06700
C256        C  0.17258016  0.24399135  0.52035241    -0.07100
Cl257      Cl  0.11848521  0.11909848  0.61394190    -0.50100
C258        C  0.22040865  0.23303006  0.71275883     0.42500
H259        H  0.96170792  0.13357885  0.52615154     0.06700
N260        N  0.23440372  0.19270358  0.52099244    -0.46800
C261        C  0.02985857  0.74202044  0.02493741     0.42300
N262        N  0.06836125  0.67712691  0.03291920     0.01200
C263        C  0.07367539  0.52500654  0.21892998    -0.06700
H264        H  0.07978724  0.70384701  0.27558399     0.06700
C265        C  0.23805871  0.71220317  0.17260432    -0.07000
Co266      Co  0.03277683  0.62063938  0.11582792     0.74200
N267        N  0.06857796  0.66852480  0.20664422    -0.26200
Co268      Co  0.12559225  0.61863372  0.19924595     0.74100
C269        C  0.21854601  0.73269250  0.21702444     0.42400
N270        N  0.21037522  0.67880944  0.05494054     0.00800
N271        N  0.17604168  0.67243410  0.19761400     0.00900
N272        N  0.00952850  0.52862022  0.16888934    -0.47000
H273        H  0.97715453  0.72249119  0.08682774     0.06700
N274        N  0.03245409  0.66908856  0.17572048     0.01200
N275        N  0.18205724  0.56841283  0.19579055     0.01000
C276        C  0.23375291  0.51438164  0.21635276     0.42600
N277        N  0.17571012  0.67762361  0.02234827    -0.25700
C278        C  0.99582945  0.53942372  0.04554220    -0.06600
N279        N  0.06664781  0.71605609  0.00739050    -0.46800
N280        N  0.19160403  0.53558503  0.22865052    -0.47000
C281        C  0.00981704  0.51915029  0.99857232     0.42300
N282        N  0.03868608  0.56569023  0.16409066     0.01200
N283        N  0.17297195  0.57382456  0.02128798    -0.25700
N284        N  0.03476319  0.67558808  0.06684224    -0.26200
N285        N  0.20810906  0.57391124  0.05350495     0.00800
H286        H  0.15848878  0.53092077  0.95801373     0.06700
H287        H  0.28350668  0.53416827  0.15238487     0.06800
N288        N  0.07542491  0.56489587  0.19419514    -0.26200
N289        N  0.20936731  0.67485452  0.16350520    -0.25800
N290        N  0.06302074  0.57247943  0.02219687     0.01200
C291        C  0.01008069  0.71825243  0.23318989     0.42600
C292        C  0.18597405  0.71094960  0.98896308    -0.07100
N293        N  0.21567369  0.57116241  0.16205126    -0.25800
H294        H  0.26951481  0.72249205  0.15177565     0.06700
N295        N  0.99655479  0.69732165  0.19066059    -0.47100
H296        H  0.16531433  0.71676006  0.95657159     0.06700
C297        C  0.22508120  0.51682482  0.00534280     0.42400
C298        C  0.00776858  0.71457843  0.06394938    -0.06600
Co299      Co  0.11971919  0.62501104  0.02365736     0.73800
N300        N  0.24430171  0.71168986  0.04519489    -0.46800
C301        C  0.02963595  0.50137890  0.20293765     0.42700
N302        N  0.05190501  0.54182834  0.98651139    -0.46800
Co303      Co  0.21194759  0.62475574  0.10842506     0.73900
C304        C  0.25019076  0.53892539  0.17230995    -0.07100
C305        C  0.05817022  0.69884003  0.24348289    -0.06700
N306        N  0.03037123  0.57188933  0.05707841    -0.26200
N307        N  0.18025920  0.70638187  0.23033418    -0.46900
H308        H  0.09839447  0.51524517  0.24715917     0.06700
C309        C  0.18046024  0.53871421  0.98935919    -0.07100
Cl310      Cl  0.12257717  0.62225672  0.11172848    -0.50100
C311        C  0.23111982  0.73478792  0.00439848     0.42500
H312        H  0.96351539  0.53239054  0.06644733     0.06700
N313        N  0.23990248  0.54017768  0.04532507    -0.46800
C314        C  0.74659552  0.01694174  0.03150802     0.42300
N315        N  0.68290246  0.03387269  0.07139168     0.01200
C316        C  0.53929063  0.22850616  0.06900652    -0.06700
H317        H  0.71653673  0.27707448  0.08538334     0.06700
C318        C  0.70870639  0.17066508  0.24958147    -0.07000
Co319      Co  0.63344113  0.11998202  0.03500568     0.74200
N320        N  0.68357960  0.20771930  0.07465518    -0.26200
Co321      Co  0.62917627  0.20370115  0.12887876     0.74100
C322        C  0.73439420  0.21330891  0.23469864     0.42400
N323        N  0.67283629  0.05680910  0.21399444     0.00800
N324        N  0.67948496  0.19757480  0.18326683     0.00900
N325        N  0.54414736  0.17353776  0.00886490    -0.47000
H326        H  0.73593801  0.08036048  0.98057928     0.06700
N327        N  0.68510798  0.17689592  0.03834693     0.01200
N328        N  0.57396792  0.20389132  0.18277920     0.01000
C329        C  0.51752825  0.22636110  0.23321349     0.42600
N330        N  0.67320071  0.02484579  0.17880308    -0.25700
C331        C  0.54806377  0.05541905  0.99211227    -0.06600
N332        N  0.71793550  0.00272271  0.06793986    -0.46800
N333        N  0.54401625  0.23936631  0.19397935    -0.47000
C334        C  0.52364153  0.01045594  0.00504098     0.42300
N335        N  0.58031901  0.17024778  0.03913963     0.01200
N336        N  0.56813957  0.03259704  0.16595182    -0.25700
N337        N  0.68616005  0.06773693  0.03884624    -0.26200
N338        N  0.56680046  0.06332059  0.20216449     0.00800
H339        H  0.51826794  0.97906488  0.14032962     0.06700
H340        H  0.52688998  0.15846627  0.27763082     0.06800
N341        N  0.57846023  0.20204190  0.07457179    -0.26200
N342        N  0.67563016  0.16356342  0.21551949    -0.25800
N343        N  0.57719124  0.03065224  0.05951426     0.01200
C344        C  0.73358754  0.23463819  0.01612570     0.42600
C345        C  0.70366233  0.98975429  0.19136367    -0.07100
N346        N  0.57057710  0.16864665  0.21354419    -0.25800
H347        H  0.71130266  0.15049299  0.28232411     0.06700
N348        N  0.71334239  0.19228417  0.00234011    -0.47100
H349        H  0.70958718  0.95744219  0.17078352     0.06700
C350        C  0.49989391  0.02520946  0.20662137     0.42400
C351        C  0.72524275  0.05979838  0.01154232    -0.06600
Co352      Co  0.62546292  0.02958201  0.11891993     0.73800
N353        N  0.70196048  0.04517423  0.25038567    -0.46800
C354        C  0.51640644  0.20861760  0.02623761     0.42700
N355        N  0.54423317  0.99759145  0.04731156    -0.46800
Co356      Co  0.62149393  0.11284720  0.21227123     0.73900
C357        C  0.53570213  0.17927459  0.24622538    -0.07100
C358        C  0.71359018  0.24455938  0.06437149    -0.06700
N359        N  0.58042507  0.06492322  0.02767836    -0.26200
N360        N  0.71384903  0.22860586  0.19384718    -0.46900
H361        H  0.52828159  0.25774245  0.09204754     0.06700
C362        C  0.52716366  0.00757168  0.16533952    -0.07100
Cl363      Cl  0.62781390  0.11660862  0.12374027    -0.50100
C364        C  0.72392910  0.00342658  0.23868826     0.42500
H365        H  0.54322126  0.07652076  0.96020478     0.06700
N366        N  0.52685499  0.05955523  0.22793501    -0.46800
C367        C  0.59672939  0.57902114  0.13054104     0.86300
C368        C  0.56141043  0.61290933  0.10578165    -0.53900
C369        C  0.58298865  0.64496458  0.07600729     0.09300
C370        C  0.63849647  0.64414806  0.07809656     0.20200
C371        C  0.62907412  0.55928089  0.09029907    -0.54600
C372        C  0.65078918  0.59333109  0.06310815     0.09400
C373        C  0.62849227  0.61390744  0.15943915    -0.54100
C374        C  0.64990197  0.64815489  0.13220299     0.09900
H375        H  0.52259234  0.61182759  0.11153112     0.14500
H376        H  0.65728643  0.67107995  0.05570622     0.00200
H377        H  0.63446553  0.52153573  0.08396009     0.14800
H378        H  0.63198546  0.61375327  0.19822311     0.14600
C379        C  0.14965253  0.65857616  0.64416143     0.86300
C380        C  0.17785130  0.61391443  0.63062152    -0.53900
C381        C  0.15208111  0.58245685  0.60286688     0.09300
C382        C  0.09910877  0.59679153  0.59471903     0.20200
C383        C  0.13016955  0.67750264  0.59711974    -0.54600
C384        C  0.10161652  0.64631276  0.57222044     0.09400
C385        C  0.10547750  0.63819585  0.67122827    -0.54100
C386        C  0.07903713  0.60596575  0.64537361     0.09900
H387        H  0.21606576  0.60952086  0.63765561     0.14500
H388        H  0.07801184  0.57009869  0.57358137     0.00200
H389        H  0.13170849  0.71516426  0.58872832     0.14800
H390        H  0.09955091  0.64306579  0.70970491     0.14600
C391        C  0.25057154  0.26102199  0.46268550     0.42300
N392        N  0.27487744  0.31322423  0.40946771     0.01200
C393        C  0.49635282  0.30618758  0.28205899    -0.06700
H394        H  0.50960416  0.34468545  0.46422090     0.06700
C395        C  0.42747766  0.49778136  0.44439575    -0.07000
Co396      Co  0.36870414  0.28327517  0.36151151     0.74200
N397        N  0.45025160  0.32574782  0.41774283    -0.26200
Co398      Co  0.45451772  0.37441275  0.36294450     0.74100
C399        C  0.47250449  0.48357339  0.46808455     0.42400
N400        N  0.30949098  0.45617423  0.40839535     0.00800
N401        N  0.45212936  0.43124396  0.41340782     0.00900
N402        N  0.44225446  0.24589642  0.28395493    -0.47000
H403        H  0.31892763  0.21659455  0.45011072     0.06700
N404        N  0.41860698  0.29027800  0.41744588     0.01200
N405        N  0.45343374  0.42297844  0.30800701     0.01000
C406        C  0.47193110  0.46218136  0.24531115     0.42600
N407        N  0.27663941  0.42163571  0.40831779    -0.25700
C408        C  0.31203483  0.25223435  0.26881216    -0.06600
N409        N  0.23861248  0.30190304  0.43961666    -0.46800
N410        N  0.48590016  0.42624832  0.27331293    -0.47000
C411        C  0.27088926  0.27063930  0.24184337     0.42300
N412        N  0.42811203  0.28201260  0.31225349     0.01200
N413        N  0.27708828  0.42339090  0.30307969    -0.25700
N414        N  0.31001097  0.28178136  0.41074782    -0.26200
N415        N  0.31127503  0.45652651  0.30265682     0.00800
H416        H  0.20947541  0.41699012  0.26410108     0.06700
H417        H  0.40779660  0.51295453  0.25614750     0.06800
N418        N  0.45988526  0.31733478  0.31266675    -0.26200
N419        N  0.41790426  0.46338884  0.41113060    -0.25800
N420        N  0.28455269  0.31575610  0.30329714     0.01200
C421        C  0.46251858  0.27903214  0.47944779     0.42600
C422        C  0.24508243  0.42957649  0.44403264    -0.07100
N423        N  0.41953196  0.45554004  0.30543410    -0.25800
H424        H  0.40685158  0.52986839  0.44972350     0.06700
N425        N  0.42544320  0.26068671  0.45338618    -0.47100
H426        H  0.21333028  0.40825105  0.45187663     0.06700
C427        C  0.26080856  0.48017351  0.24798475     0.42400
C428        C  0.29811178  0.24807585  0.44312845    -0.06600
Co429      Co  0.27727263  0.36832286  0.35606738     0.73800
N430        N  0.30179224  0.48825412  0.44258956    -0.46800
C431        C  0.48480875  0.25863055  0.26257401     0.42700
N432        N  0.25565078  0.30959327  0.26603020    -0.46800
Co433      Co  0.36449891  0.45871526  0.35688187     0.73900
C434        C  0.42846131  0.48247927  0.26689875    -0.07100
C435        C  0.47870462  0.32216142  0.45609373    -0.06700
N436        N  0.31820951  0.28282118  0.30568774    -0.26200
N437        N  0.48537501  0.44207240  0.44650104    -0.46900
H438        H  0.52904737  0.32700509  0.27715899     0.06700
C439        C  0.24334084  0.43561915  0.27019971    -0.07100
Cl440      Cl  0.36613265  0.37115246  0.35931389    -0.50100
C441        C  0.26186188  0.47376640  0.46635638     0.42500
H442        H  0.33306068  0.22058133  0.26280120     0.06700
N443        N  0.30276931  0.49076426  0.27102168    -0.46800
C444        C  0.71676241  0.70345696  0.73546344     0.42300
N445        N  0.69933054  0.66170761  0.67314459     0.01200
C446        C  0.49682883  0.67598487  0.53179382    -0.06700
H447        H  0.45250852  0.66055389  0.70664700     0.06700
C448        C  0.55234975  0.49511461  0.70245625    -0.07000
Co449      Co  0.61330086  0.69936558  0.62220104     0.74200
N450        N  0.52265650  0.66629451  0.67221189    -0.26200
Co451      Co  0.52406763  0.61205451  0.61804614     0.74100
C452        C  0.51142882  0.51436399  0.72915889     0.42400
N453        N  0.66931182  0.52184795  0.66709642     0.00800
N454        N  0.52641574  0.55892038  0.66920493     0.00900
N455        N  0.55592549  0.73222071  0.53723136    -0.47000
H456        H  0.65360743  0.75430144  0.72260962     0.06700
N457        N  0.55639036  0.69986992  0.67356694     0.01200
N458        N  0.52380277  0.55835674  0.56320940     0.01000
C459        C  0.50188270  0.50927887  0.50602153     0.42600
N460        N  0.70379258  0.55471226  0.66679653    -0.25700
C461        C  0.67926398  0.73555784  0.53701543    -0.06600
N462        N  0.73119737  0.66631527  0.70815809    -0.46800
N463        N  0.48957510  0.54968851  0.53028306    -0.47000
C464        C  0.72404198  0.72057678  0.51301635     0.42300
N465        N  0.56142874  0.69874060  0.56938640     0.01200
N466        N  0.69937194  0.56205045  0.56267065    -0.25700
N467        N  0.66564485  0.69463691  0.67502227    -0.26200
N468        N  0.66618749  0.52797325  0.56182418     0.00800
H469        H  0.76386474  0.57454752  0.52102704     0.06700
H470        H  0.56736808  0.46160675  0.51985240     0.06800
N471        N  0.52720197  0.66566128  0.56741753    -0.26200
N472        N  0.55976971  0.52566603  0.66697260    -0.25800
N473        N  0.70267005  0.66898366  0.56731413     0.01200
C474        C  0.50115020  0.72562142  0.72335050     0.42600
C475        C  0.73948666  0.54075696  0.69662861    -0.07100
N476        N  0.55778878  0.52567732  0.56246819    -0.25800
H477        H  0.57323517  0.46353123  0.70804763     0.06700
N478        N  0.54428812  0.73623497  0.70234105    -0.47100
H479        H  0.77368487  0.55908473  0.70169445     0.06700
C480        C  0.71387080  0.51097955  0.50392844     0.42400
C481        C  0.67376888  0.72278082  0.71324139    -0.06600
Co482      Co  0.70206187  0.61212472  0.61743062     0.73800
N483        N  0.67974654  0.48578146  0.69613457    -0.46800
C484        C  0.51673438  0.71950696  0.51167623     0.42700
N485        N  0.73629873  0.67897802  0.53412170    -0.46800
Co486      Co  0.61310092  0.52452920  0.61465187     0.73900
C487        C  0.54717166  0.49352278  0.52756756    -0.07100
C488        C  0.48679621  0.67900127  0.70297819    -0.06700
N489        N  0.66897571  0.70179838  0.56984377    -0.26200
N490        N  0.49637311  0.55329149  0.70588826    -0.46900
H491        H  0.46393053  0.65679869  0.52281633     0.06700
C492        C  0.73095482  0.55439838  0.52720269    -0.07100
Cl493      Cl  0.61307478  0.61195463  0.61827319    -0.50100
C494        C  0.72351981  0.49502031  0.71678684     0.42500
H495        H  0.65881257  0.76760296  0.53171714     0.06700
N496        N  0.67438239  0.49569122  0.52790170    -0.46800
C497        C  0.59162762  0.16159292  0.58786407     0.86300
C498        C  0.56083946  0.13879402  0.62757272    -0.53900
C499        C  0.58401021  0.10450454  0.65242520     0.09300
C500        C  0.63685295  0.09785685  0.63766225     0.20200
C501        C  0.63707977  0.18057779  0.61317315    -0.54600
C502        C  0.65991940  0.14737915  0.63994427     0.09400
C503        C  0.60973358  0.11800879  0.55802190    -0.54100
C504        C  0.63365294  0.08534757  0.58444997     0.09900
H505        H  0.52353191  0.14803627  0.63408817     0.14500
H506        H  0.65708483  0.07135461  0.65870998     0.00200
H507        H  0.64802290  0.21776030  0.61305758     0.14800
H508        H  0.60616422  0.11240114  0.51956590     0.14600
C509        C  0.08414714  0.08063289  0.15329587     0.86300
C510        C  0.04983387  0.10880771  0.12049778    -0.53900
C511        C  0.07283037  0.13645401  0.08762420     0.09300
C512        C  0.12780937  0.13534391  0.09142594     0.20200
C513        C  0.11858243  0.05452751  0.11987468    -0.54600
C514        C  0.13914878  0.08221804  0.08583745     0.09400
C515        C  0.11449591  0.12003233  0.17705665    -0.54100
C516        C  0.13796323  0.14816672  0.14460649     0.09900
H517        H  0.01072947  0.10892553  0.12437258     0.14500
H518        H  0.14673102  0.15917052  0.06581590     0.00200
H519        H  0.12417126  0.01640029  0.12143288     0.14800
H520        H  0.11730424  0.12587462  0.21560273     0.14600
C521        C  0.19032155  0.25591224  0.20765869    -0.05900
C522        C  0.23974627  0.24478712  0.20697035     0.00000
C523        C  0.25595357  0.20697109  0.17702822    -0.08600
C524        C  0.22130399  0.17646409  0.15610842    -0.05900
C525        C  0.17188353  0.18560595  0.16038836     0.00000
C526        C  0.15605567  0.22745581  0.18382197    -0.08500
C527        C  0.10386372  0.24324165  0.18174818     0.61900
H528        H  0.17818449  0.28643316  0.22827733     0.12600
H529        H  0.23288529  0.14494133  0.13658871     0.12600
C530        C  0.30851313  0.19822687  0.16476422     0.62100
F531        F  0.09633333  0.28492260  0.20759235    -0.23000
F532        F  0.07315741  0.20892999  0.20020803    -0.20400
F533        F  0.09239028  0.25150848  0.13426038    -0.20000
F534        F  0.32573210  0.16139788  0.19213227    -0.20100
F535        F  0.33697128  0.23837703  0.17189744    -0.20400
F536        F  0.31239054  0.18550455  0.11664386    -0.23100
C537        C  0.56361646  0.19706704  0.50977725    -0.05900
C538        C  0.56375460  0.19940202  0.56057036     0.00000
C539        C  0.53412490  0.23450467  0.58371677    -0.08600
C540        C  0.50006382  0.25831119  0.55576482    -0.05900
C541        C  0.49593604  0.24990816  0.50632790     0.00000
C542        C  0.52902682  0.22006225  0.48227786    -0.08500
C543        C  0.52802354  0.21231328  0.42777799     0.61900
H544        H  0.59106353  0.17758257  0.49078259     0.12600
H545        H  0.47661701  0.28436181  0.57271620     0.12600
C546        C  0.53613273  0.25031553  0.63648091     0.62100
F547        F  0.56366981  0.18151625  0.41217555    -0.23000
F548        F  0.53517842  0.25492427  0.40446725    -0.20400
F549        F  0.48394829  0.19289214  0.41420821    -0.20000
F550        F  0.57087586  0.22853564  0.66356033    -0.20100
F551        F  0.54573639  0.29866170  0.63848989    -0.20400
F552        F  0.49167264  0.24192572  0.65792417    -0.23100
C553        C  0.19846743  0.57573251  0.52846492    -0.05900
C554        C  0.17817608  0.55256946  0.56809502     0.00000
C555        C  0.18580813  0.50375168  0.57494551    -0.08600
C556        C  0.21389811  0.47912556  0.54082769    -0.05900
C557        C  0.23490128  0.50255168  0.50140776     0.00000
C558        C  0.22710814  0.55172603  0.49476700    -0.08500
C559        C  0.24803124  0.57898259  0.45235840     0.61900
H560        H  0.19242276  0.61339350  0.52480225     0.12600
H561        H  0.22008002  0.44144481  0.54488078     0.12600
C562        C  0.16466606  0.47836915  0.61810420     0.62100
F563        F  0.23031920  0.62474258  0.45024797    -0.23000
F564        F  0.23625979  0.55611463  0.40949312    -0.20400
F565        F  0.29774281  0.58229735  0.45671566    -0.20000
F566        F  0.11478896  0.48078846  0.61681696    -0.20100
F567        F  0.18129607  0.49976357  0.66009287    -0.20400
F568        F  0.17751279  0.43096831  0.61872723    -0.23100
C569        C  0.52809985  0.52070705  0.13729395    -0.05900
C570        C  0.57090846  0.53954832  0.15789502     0.00000
C571        C  0.58555636  0.52214997  0.20340071    -0.08600
C572        C  0.55105290  0.49863498  0.23151973    -0.05900
C573        C  0.50548976  0.48643426  0.21313155     0.00000
C574        C  0.49470623  0.49453209  0.16442063    -0.08500
C575        C  0.44870637  0.47527390  0.14129674     0.61900
H576        H  0.51981930  0.52849438  0.10022645     0.12600
H577        H  0.56038047  0.48830609  0.26785746     0.12600
C578        C  0.63715359  0.52226138  0.22200377     0.62100
F579        F  0.44738811  0.48414225  0.09231897    -0.23000
F580        F  0.40882373  0.49621585  0.16244336    -0.20400
F581        F  0.44587480  0.42662029  0.14740808    -0.20000
F582        F  0.64181394  0.55462824  0.25966455    -0.20100
F583        F  0.67067909  0.53234105  0.18643825    -0.20400
F584        F  0.64800677  0.47762865  0.23913622    -0.23100
C585        C  0.82176247  0.26797520  0.32246321    -0.05900
C586        C  0.80364633  0.31418010  0.32488781     0.00000
C587        C  0.75995590  0.32576679  0.30238263    -0.08600
C588        C  0.73750966  0.29086479  0.27403370    -0.05900
C589        C  0.75823769  0.24588756  0.26783837     0.00000
C590        C  0.80046288  0.23348368  0.29277397    -0.08500
C591        C  0.82479357  0.18572935  0.28547279     0.61900
H592        H  0.85449880  0.25994879  0.34161472     0.12600
H593        H  0.70399085  0.29866704  0.25579735     0.12600
C594        C  0.73694371  0.37405833  0.30939750     0.62100
F595        F  0.86882342  0.18394262  0.30887446    -0.23000
F596        F  0.83300608  0.17762150  0.23685708    -0.20400
F597        F  0.79590151  0.14977248  0.30343674    -0.20000
F598        F  0.76742462  0.40948786  0.29277701    -0.20100
F599        F  0.72786287  0.38146867  0.35792767    -0.20400
F600        F  0.69357139  0.37727776  0.28494927    -0.23100
C601        C  0.00368030  0.48374361  0.28446051    -0.05900
C602        C  0.00088651  0.47235526  0.23528004     0.00000
C603        C  0.97240018  0.43389908  0.21905895    -0.08600
C604        C  0.94595328  0.40874866  0.25344703    -0.05900
C605        C  0.94526490  0.42272799  0.30262695     0.00000
C606        C  0.97920258  0.45762114  0.31902495    -0.08500
C607        C  0.99227670  0.46976845  0.37124023     0.61900
H608        H  0.02599004  0.51341596  0.29657090     0.12600
H609        H  0.92641591  0.37744345  0.24161696     0.12600
C610        C  0.97007711  0.41950504  0.16609662     0.62100
F611        F  0.97097670  0.51225590  0.38439296    -0.23000
F612        F  0.04194204  0.47532178  0.37514087    -0.20400
F613        F  0.97920236  0.43533001  0.40380547    -0.20000
F614        F  0.01609168  0.41022472  0.14900126    -0.20100
F615        F  0.95025384  0.45575563  0.13969685    -0.20400
F616        F  0.94179425  0.37920521  0.15872404    -0.23100
C617        C  0.98187342  0.22777823  0.42417149    -0.05900
C618        C  0.97057415  0.22568050  0.47302020     0.00000
C619        C  0.93087628  0.25076071  0.49234654    -0.08600
C620        C  0.90688519  0.28205623  0.46226143    -0.05900
C621        C  0.92188591  0.28867550  0.41452352     0.00000
C622        C  0.95652308  0.25742255  0.39355647    -0.08500
C623        C  0.96852808  0.25325426  0.34007947     0.61900
H624        H  0.01120834  0.20639851  0.40992202     0.12600
H625        H  0.87852306  0.30387613  0.47709526     0.12600
C626        C  0.91571408  0.24663844  0.54490770     0.62100
F627        F  0.96795350  0.20580974  0.32634490    -0.23000
F628        F  0.01442236  0.27146161  0.33188381    -0.20400
F629        F  0.93607927  0.27619196  0.31094003    -0.20000
F630        F  0.95380746  0.25957149  0.57461143    -0.20100
F631        F  0.90178868  0.20040300  0.55441127    -0.20400
F632        F  0.87703978  0.27561121  0.55612903    -0.23100
C633        C  0.78891995  0.45709265  0.40611535    -0.05900
C634        C  0.82132362  0.43037176  0.43340308     0.00000
C635        C  0.81618078  0.42794456  0.48401038    -0.08600
C636        C  0.77725128  0.45154384  0.50547818    -0.05900
C637        C  0.74613483  0.47935535  0.47813584     0.00000
C638        C  0.75150353  0.48235894  0.42795299    -0.08500
C639        C  0.71823469  0.51283310  0.39823536     0.61900
H640        H  0.79374561  0.45865547  0.36743230     0.12600
H641        H  0.77293723  0.45087564  0.54436395     0.12600
C642        C  0.85163779  0.40387822  0.51716779     0.62100
F643        F  0.72851729  0.50944300  0.34944777    -0.23000
F644        F  0.72324332  0.55992394  0.41236594    -0.20400
F645        F  0.67080624  0.49840336  0.40531759    -0.20000
F646        F  0.89302261  0.38896928  0.49376075    -0.20100
F647        F  0.82921293  0.36515765  0.53818280    -0.20400
F648        F  0.86574779  0.43548719  0.55317431    -0.23100
C649        C  0.28164503  0.78609621  0.32434885    -0.05900
C650        C  0.31110422  0.81982679  0.30154053     0.00000
C651        C  0.30545935  0.82878512  0.25163154    -0.08600
C652        C  0.27167681  0.80115557  0.22621543    -0.05900
C653        C  0.24443613  0.76563821  0.24873075     0.00000
C654        C  0.24772864  0.75890037  0.29912431    -0.08500
C655        C  0.21761648  0.72241623  0.32649229     0.61900
H656        H  0.28606496  0.78072816  0.36265387     0.12600
H657        H  0.26720963  0.80595955  0.18781129     0.12600
C658        C  0.33619404  0.86430318  0.22384271     0.62100
F659        F  0.22791254  0.72273767  0.37532563    -0.23000
F660        F  0.22684256  0.67720815  0.30888384    -0.20400
F661        F  0.16902483  0.73242363  0.32176279    -0.20000
F662        F  0.38436656  0.85604167  0.23188776    -0.20100
F663        F  0.32510038  0.91018996  0.23744399    -0.20400
F664        F  0.32879751  0.86059753  0.17457861    -0.23100
C665        C  0.40611362  0.98055621  0.29311530    -0.05900
C666        C  0.42439073  0.93508110  0.30132763     0.00000
C667        C  0.46318448  0.91716384  0.27299320    -0.08600
C668        C  0.48579719  0.94805972  0.24145634    -0.05900
C669        C  0.46944568  0.99439309  0.23532895     0.00000
C670        C  0.42845037  0.01101433  0.26020957    -0.08500
C671        C  0.40915094  0.06059246  0.25240560     0.61900
H672        H  0.37563734  0.99280442  0.31403977     0.12600
H673        H  0.51781621  0.93609916  0.22241839     0.12600
C674        C  0.48344981  0.86694889  0.27482772     0.62100
F675        F  0.36608238  0.06783203  0.27685509    -0.23000
F676        F  0.40095500  0.06722018  0.20379877    -0.20400
F677        F  0.44233459  0.09413699  0.26862330    -0.20000
F678        F  0.49608610  0.85163914  0.22887362    -0.20100
F679        F  0.45087646  0.83399566  0.29231436    -0.20400
F680        F  0.52443598  0.86710503  0.30319854    -0.23100
C681        C  0.30183235  0.97999363  0.40534212    -0.05900
C682        C  0.29543464  0.93112231  0.41189066     0.00000
C683        C  0.25283257  0.91357480  0.43379610    -0.08600
C684        C  0.22279937  0.94611084  0.45721144    -0.05900
C685        C  0.23255746  0.99512951  0.45580143     0.00000
C686        C  0.26864758  0.01242529  0.42415504    -0.08500
C687        C  0.27224839  0.06338213  0.40736481     0.61900
H688        H  0.33278495  0.99294029  0.38538958     0.12600
H689        H  0.19239558  0.93314135  0.47806000     0.12600
C690        C  0.23718140  0.86189112  0.42951057     0.62100
F691        F  0.27719905  0.06373626  0.35768840    -0.23000
F692        F  0.31238293  0.08533067  0.42763406    -0.20400
F693        F  0.23130493  0.08905432  0.41869302    -0.20000
F694        F  0.27203594  0.83208757  0.44724151    -0.20100
F695        F  0.22905628  0.85142048  0.38148637    -0.20400
F696        F  0.19462775  0.85293016  0.45437874    -0.23100
C697        C  0.46155959  0.78125377  0.40746030    -0.05900
C698        C  0.43731887  0.81881896  0.43130989     0.00000
C699        C  0.44883848  0.82867910  0.48039090    -0.08600
C700        C  0.47217833  0.79335262  0.50624918    -0.05900
C701        C  0.49063475  0.75310436  0.48294435     0.00000
C702        C  0.48846020  0.74822042  0.43271334    -0.08500
C703        C  0.51523820  0.70885417  0.40632936     0.61900
H704        H  0.45890649  0.77746255  0.36878898     0.12600
H705        H  0.47838757  0.79833210  0.54453620     0.12600
C706        C  0.44307838  0.87648833  0.50585225     0.62100
F707        F  0.51058168  0.71203373  0.35680972    -0.23000
F708        F  0.49725073  0.66513661  0.42039818    -0.20400
F709        F  0.56395034  0.71172207  0.41737117    -0.20000
F710        F  0.40437692  0.87446873  0.53746846    -0.20100
F711        F  0.43705316  0.91341475  0.47417641    -0.20400
F712        F  0.48440222  0.88713176  0.53207321    -0.23100
C713        C  0.28629731  0.27816748  0.82115171    -0.05900
C714        C  0.32035841  0.30871619  0.79954313     0.00000
C715        C  0.31880487  0.31731371  0.74951607    -0.08600
C716        C  0.28321646  0.29370547  0.72238704    -0.05900
C717        C  0.25065755  0.26199856  0.74396860     0.00000
C718        C  0.25130753  0.25425347  0.79385868    -0.08500
C719        C  0.21541183  0.22059267  0.81758609     0.61900
H720        H  0.28793509  0.27262142  0.85968482     0.12600
H721        H  0.28201714  0.29856295  0.68366981     0.12600
C722        C  0.35428741  0.34886608  0.72254724     0.62100
F723        F  0.22285766  0.21758374  0.86677494    -0.23000
F724        F  0.21971368  0.17547490  0.79778181    -0.20400
F725        F  0.16893967  0.23657355  0.81014731    -0.20000
F726        F  0.38969593  0.36880049  0.75156453    -0.20100
F727        F  0.32929222  0.38522235  0.70108268    -0.20400
F728        F  0.37694899  0.32226538  0.68698966    -0.23100
C729        C  0.22701422  0.44690589  0.95136432    -0.05900
C730        C  0.25292776  0.48037014  0.97946422     0.00000
C731        C  0.30426342  0.47935025  0.98043866    -0.08600
C732        C  0.32745515  0.44350466  0.95436114    -0.05900
C733        C  0.30147219  0.41021147  0.92667499     0.00000
C734        C  0.25077724  0.41160859  0.92454631    -0.08500
C735        C  0.22245492  0.37543827  0.89483180     0.61900
H736        H  0.18791588  0.44825019  0.95094098     0.12600
H737        H  0.36652140  0.44110049  0.95505641     0.12600
C738        C  0.33508036  0.51602513  0.00742420     0.62100
F739        F  0.17315258  0.38301724  0.89753673    -0.23000
F740        F  0.23152085  0.33027761  0.91142160    -0.20400
F741        F  0.23633584  0.37821744  0.84701257    -0.20000
F742        F  0.32951629  0.51032745  0.05658176    -0.20100
F743        F  0.32171058  0.56140054  0.99469780    -0.20400
F744        F  0.38380401  0.51155911  0.99678727    -0.23100
C745        C  0.40922756  0.26622161  0.97258914    -0.05900
C746        C  0.43114985  0.28999371  0.93363392     0.00000
C747        C  0.48023182  0.27960718  0.92133416    -0.08600
C748        C  0.50708372  0.25432770  0.95433686    -0.05900
C749        C  0.48564103  0.23493157  0.99514370     0.00000
C750        C  0.43606563  0.23882612  0.00393339    -0.08500
C751        C  0.41184673  0.21342177  0.04552780     0.61900
H752        H  0.37070130  0.26820517  0.97819473     0.12600
H753        H  0.54532042  0.24864525  0.94765531     0.12600
C754        C  0.50740096  0.29289038  0.87528507     0.62100
F755        F  0.36257346  0.22111229  0.04629447    -0.23000
F756        F  0.43094409  0.22962648  0.08876622    -0.20400
F757        F  0.41939621  0.16504949  0.04111292    -0.20000
F758        F  0.54216149  0.32702179  0.88616850    -0.20100
F759        F  0.47866445  0.30933883  0.83879748    -0.20400
F760        F  0.53052083  0.25308509  0.85707919    -0.23100
C761        C  0.48113244  0.43236564  0.83019518    -0.05900
C762        C  0.43030003  0.43674967  0.83386773     0.00000
C763        C  0.40818239  0.47427113  0.80796158    -0.08600
C764        C  0.43625798  0.49934591  0.77429556    -0.05900
C765        C  0.48618335  0.49270489  0.77008265     0.00000
C766        C  0.50962726  0.46239892  0.80230722    -0.08500
C767        C  0.56416638  0.46009085  0.80874913     0.61900
H768        H  0.50019639  0.40462593  0.84825386     0.12600
H769        H  0.41878366  0.52425783  0.75065853     0.12600
C770        C  0.35630916  0.49014331  0.81399069     0.62100
F771        F  0.57509907  0.45381051  0.85690279    -0.23000
F772        F  0.58712228  0.50159944  0.79473232    -0.20400
F773        F  0.58226079  0.42191811  0.78280983    -0.20000
F774        F  0.33891965  0.48054530  0.85941188    -0.20100
F775        F  0.32760392  0.46843527  0.77924611    -0.20400
F776        F  0.35321886  0.53883646  0.80833260    -0.23100
C777        C  0.24833609  0.74137427  0.69401524    -0.05900
C778        C  0.22270255  0.76348215  0.73128408     0.00000
C779        C  0.17271765  0.75727103  0.73603006    -0.08600
C780        C  0.15008774  0.72473878  0.70512575    -0.05900
C781        C  0.17655150  0.69757632  0.67103743     0.00000
C782        C  0.22544078  0.71092208  0.66122699    -0.08500
C783        C  0.25532938  0.69682640  0.61716924     0.61900
H784        H  0.28665063  0.74909375  0.68978432     0.12600
H785        H  0.11129073  0.72073622  0.70760799     0.12600
C786        C  0.14393386  0.78484464  0.77347420     0.62100
F787        F  0.27916695  0.73654779  0.59958482    -0.23000
F788        F  0.22822365  0.67863635  0.57959461    -0.20400
F789        F  0.28956655  0.66398448  0.63028345    -0.20000
F790        F  0.15014638  0.83305785  0.76621359    -0.20100
F791        F  0.15991963  0.77380761  0.81912928    -0.20400
F792        F  0.09497676  0.77436950  0.77095407    -0.23100
C793        C  0.18658332  0.99573251  0.99301500    -0.05900
C794        C  0.23139071  0.01654708  0.98380335     0.00000
C795        C  0.24301541  0.06246044  0.00168480    -0.08600
C796        C  0.21034246  0.08399273  0.03348740    -0.05900
C797        C  0.16657165  0.06155106  0.04562183     0.00000
C798        C  0.15253282  0.01832891  0.02194652    -0.08500
C799        C  0.10332898  0.99354666  0.02479166     0.61900
H800        H  0.17814025  0.96108611  0.97737622     0.12600
H801        H  0.21977219  0.11750655  0.05071255     0.12600
C802        C  0.29014319  0.08761600  0.98892037     0.62100
F803        F  0.08681480  0.98442830  0.97850735    -0.23000
F804        F  0.06815107  0.01950792  0.04807430    -0.20400
F805        F  0.10823716  0.95072915  0.04811845    -0.20000
F806        F  0.29126128  0.09636088  0.93997423    -0.20100
F807        F  0.32905468  0.05971645  0.00097644    -0.20400
F808        F  0.29512114  0.13075988  0.01300579    -0.23100
C809        C  0.48796178  0.69966664  0.99591161    -0.05900
C810        C  0.50779694  0.74491176  0.98967904     0.00000
C811        C  0.55183176  0.75786494  0.01159135    -0.08600
C812        C  0.57480320  0.72408467  0.03998154    -0.05900
C813        C  0.55585070  0.67771475  0.04511145     0.00000
C814        C  0.51218181  0.66467185  0.02086094    -0.08500
C815        C  0.48932208  0.61521849  0.01772768     0.61900
H816        H  0.45340111  0.69096407  0.97944233     0.12600
H817        H  0.60775989  0.73405680  0.05853875     0.12600
C818        C  0.57481788  0.80639470  0.00376651     0.62100
F819        F  0.45081097  0.61253712  0.04951058    -0.23000
F820        F  0.52101447  0.57940243  0.02719418    -0.20400
F821        F  0.47225443  0.60658633  0.97150596    -0.20000
F822        F  0.54429292  0.84161053  0.02036769    -0.20100
F823        F  0.58336081  0.81264890  0.95507879    -0.20400
F824        F  0.61841725  0.81138565  0.02777435    -0.23100
C825        C  0.50162660  0.00700233  0.69733154    -0.05900
C826        C  0.52649145  0.99417149  0.73888380     0.00000
C827        C  0.56968971  0.01729450  0.75223405    -0.08600
C828        C  0.58516218  0.05565769  0.72454673    -0.05900
C829        C  0.55971227  0.06968139  0.68331347     0.00000
C830        C  0.51772507  0.04389833  0.66829976    -0.08500
C831        C  0.48849021  0.05418429  0.62306247     0.61900
H832        H  0.46777858  0.98914400  0.68883878     0.12600
H833        H  0.61827455  0.07394125  0.73420127     0.12600
C834        C  0.60017420  0.99987024  0.79382590     0.62100
F835        F  0.45823472  0.01642684  0.61081471    -0.23000
F836        F  0.51809429  0.06193805  0.58374770    -0.20400
F837        F  0.45978105  0.09336497  0.63114255    -0.20000
F838        F  0.61108209  0.95252020  0.78613961    -0.20100
F839        F  0.57547156  0.00445686  0.83694849    -0.20400
F840        F  0.64321323  0.02509084  0.79797575    -0.23100
C841        C  0.67913619  0.16239243  0.72484015    -0.05900
C842        C  0.69529875  0.16078014  0.67697611     0.00000
C843        C  0.74327351  0.17388985  0.66572396    -0.08600
C844        C  0.77112031  0.19564920  0.70187669    -0.05900
C845        C  0.75252223  0.20289372  0.74865587     0.00000
C846        C  0.70881445  0.17993105  0.76177100    -0.08500
C847        C  0.69301087  0.17153881  0.81330281     0.61900
H848        H  0.64283381  0.15053981  0.73344758     0.12600
H849        H  0.80659741  0.20956107  0.69286978     0.12600
C850        C  0.76500517  0.16431657  0.61641709     0.62100
F851        F  0.67500903  0.12569281  0.81749416    -0.23000
F852        F  0.65687259  0.20295319  0.82590471    -0.20400
F853        F  0.73125590  0.17609261  0.84509203    -0.20000
F854        F  0.73830974  0.18607556  0.58109826    -0.20100
F855        F  0.76529254  0.11584415  0.60822827    -0.20400
F856        F  0.81219350  0.18087284  0.61310397    -0.23100
C857        C  0.02343209  0.20428288  0.98196408    -0.05900
C858        C  0.99720616  0.23937185  0.00634408     0.00000
C859        C  0.99481202  0.23987252  0.05742885    -0.08600
C860        C  0.01840268  0.20385844  0.08200727    -0.05900
C861        C  0.04647975  0.17008559  0.05764943     0.00000
C862        C  0.04832252  0.16933614  0.00668056    -0.08500
C863        C  0.07338860  0.13056881  0.97800129     0.61900
H864        H  0.02382822  0.20409562  0.94295755     0.12600
H865        H  0.01618439  0.20245127  0.12093436     0.12600
C866        C  0.96980286  0.27886520  0.08635032     0.62100
F867        F  0.06596814  0.13459046  0.92889211    -0.23000
F868        F  0.05511802  0.08709083  0.99164136    -0.20400
F869        F  0.12253016  0.13256598  0.98573024    -0.20000
F870        F  0.92034948  0.27586772  0.07976871    -0.20100
F871        F  0.98665988  0.32290389  0.07183379    -0.20400
F872        F  0.97859626  0.27536085  0.13530348    -0.23100
C873        C  0.69998788  0.53855878  0.94909141    -0.05900
C874        C  0.74891394  0.53671572  0.96155611     0.00000
C875        C  0.76669245  0.56761415  0.99811840    -0.08600
C876        C  0.73329404  0.58769099  0.03021455    -0.05900
C877        C  0.68358668  0.58147688  0.02306194     0.00000
C878        C  0.66666757  0.56083089  0.97946571    -0.08500
C879        C  0.61374856  0.55959840  0.96630917     0.61900
H880        H  0.68698464  0.51800181  0.91843274     0.12600
H881        H  0.74621854  0.60693056  0.06172947     0.12600
C882        C  0.81946757  0.58131171  0.00362232     0.62100
F883        F  0.60649140  0.54435618  0.91919801    -0.23000
F884        F  0.59511300  0.60477565  0.97074486    -0.20400
F885        F  0.58948232  0.52867392  0.99636922    -0.20000
F886        F  0.84694852  0.56650724  0.96458730    -0.20100
F887        F  0.83761676  0.56213335  0.04540618    -0.20400
F888        F  0.82359937  0.63030304  0.00667934    -0.23100
C889        C  0.97340121  0.53504054  0.69463668    -0.05900
C890        C  0.99774420  0.50609961  0.72720964     0.00000
C891        C  0.04886799  0.50966490  0.73181708    -0.08600
C892        C  0.07341258  0.54195393  0.70271563    -0.05900
C893        C  0.04902027  0.57117354  0.67081320     0.00000
C894        C  0.99825922  0.56840997  0.66668653    -0.08500
C895        C  0.97030293  0.60198629  0.63529711     0.61900
H896        H  0.93440102  0.53242865  0.69237039     0.12600
H897        H  0.11231634  0.54573300  0.70536034     0.12600
C898        C  0.07820697  0.48021253  0.76669680     0.62100
F899        F  0.92111756  0.59228019  0.63596178    -0.23000
F900        F  0.98608616  0.59821058  0.58814022    -0.20400
F901        F  0.97717607  0.64787501  0.65221732    -0.20000
F902        F  0.06954863  0.43232041  0.75842727    -0.20100
F903        F  0.06606793  0.49226637  0.81365223    -0.20400
F904        F  0.12747996  0.48799030  0.76163135    -0.23100
C905        C  0.68774850  0.75037610  0.21336222    -0.05900
C906        C  0.73818877  0.74801765  0.20872914     0.00000
C907        C  0.75862795  0.71967573  0.17150069    -0.08600
C908        C  0.72817379  0.68832381  0.14595508    -0.05900
C909        C  0.67827894  0.68708910  0.15435586     0.00000
C910        C  0.65707609  0.72057917  0.18635514    -0.08500
C911        C  0.60260585  0.72475466  0.19273722     0.61900
H912        H  0.67237624  0.77349237  0.24074468     0.12600
H913        H  0.74374238  0.66384579  0.11996433     0.12600
C914        C  0.81164668  0.72134184  0.15731768     0.62100
F915        F  0.58391964  0.68522791  0.21546954    -0.23000
F916        F  0.58088639  0.72918298  0.14835561    -0.20400
F917        F  0.59048059  0.76427648  0.22025266    -0.20000
F918        F  0.83449483  0.68144185  0.17427931    -0.20100
F919        F  0.83497838  0.76164185  0.17481095    -0.20400
F920        F  0.81576782  0.72179381  0.10757240    -0.23100
C921        C  0.04320498  0.99997022  0.25649627    -0.05900
C922        C  0.99928095  0.98393610  0.23728054     0.00000
C923        C  0.98658202  0.99324934  0.18959044    -0.08600
C924        C  0.01712028  0.02265958  0.16340259    -0.05900
C925        C  0.05810060  0.04493493  0.18442126     0.00000
C926        C  0.07486327  0.02816939  0.22960622    -0.08500
C927        C  0.12543521  0.03552240  0.25013433     0.61900
H928        H  0.05310830  0.98961993  0.29267052     0.12600
H929        H  0.00846277  0.02884377  0.12607034     0.12600
C930        C  0.94130032  0.97205580  0.16659066     0.62100
F931        F  0.12485111  0.07177967  0.28420862    -0.23000
F932        F  0.15957310  0.04532216  0.21513461    -0.20400
F933        F  0.14035663  0.99447289  0.27252032    -0.20000
F934        F  0.90069589  0.98941632  0.18968968    -0.20100
F935        F  0.94183062  0.92310788  0.17033891    -0.20400
F936        F  0.93789901  0.98311617  0.11822960    -0.23100
C937        C  0.01198283  0.68617715  0.47951568    -0.05900
C938        C  0.98541242  0.71824716  0.50792240     0.00000
C939        C  0.99337317  0.72293270  0.55762197    -0.08600
C940        C  0.03064022  0.69691928  0.57738136    -0.05900
C941        C  0.05945007  0.66671852  0.54876886     0.00000
C942        C  0.04970451  0.66017263  0.49935697    -0.08500
C943        C  0.08079221  0.62866408  0.46753059     0.61900
H944        H  0.00486466  0.68399731  0.44115957     0.12600
H945        H  0.03898577  0.70138240  0.61527919     0.12600
C946        C  0.96294387  0.75555154  0.58914716     0.62100
F947        F  0.06565978  0.62869906  0.42000759    -0.23000
F948        F  0.07870772  0.58243940  0.48365966    -0.20400
F949        F  0.12809789  0.64483671  0.46884317    -0.20000
F950        F  0.91489108  0.74185021  0.58584317    -0.20100
F951        F  0.96789402  0.80199318  0.57407909    -0.20400
F952        F  0.97639462  0.75390829  0.63713255    -0.23100
C953        C  0.69488402  0.97187282  0.54329505    -0.05900
C954        C  0.73358523  0.99113998  0.51692230     0.00000
C955        C  0.74056650  0.04136284  0.51575266    -0.08600
C956        C  0.70520702  0.06989441  0.53678986    -0.05900
C957        C  0.66599233  0.05064168  0.56177914     0.00000
C958        C  0.66084363  0.00089467  0.56635934    -0.08500
C959        C  0.61863470  0.97825981  0.59280977     0.61900
H960        H  0.69095728  0.93362752  0.54490821     0.12600
H961        H  0.70801503  0.10818941  0.53435705     0.12600
C962        C  0.78412121  0.06586074  0.49268676     0.62100
F963        F  0.62079388  0.92912576  0.59189964    -0.23000
F964        F  0.57597750  0.99118230  0.57123223    -0.20400
F965        F  0.61852671  0.99272918  0.64043939    -0.20000
F966        F  0.78406499  0.05798447  0.44338873    -0.20100
F967        F  0.82628677  0.04898872  0.51262065    -0.20400
F968        F  0.78402387  0.11459465  0.50032998    -0.23100
C969        C  0.83854574  0.96778540  0.94481853    -0.05900
C970        C  0.82291350  0.92024883  0.94234683     0.00000
C971        C  0.78870859  0.90292776  0.97615419    -0.08600
C972        C  0.76625431  0.93578295  0.00666085    -0.05900
C973        C  0.77891246  0.98420089  0.00613304     0.00000
C974        C  0.81813122  0.99994534  0.97762264    -0.08500
C975        C  0.83886720  0.04999420  0.98031969     0.61900
H976        H  0.86641973  0.98022436  0.92035045     0.12600
H977        H  0.73689113  0.92373138  0.02956499     0.12600
C978        C  0.77399250  0.85083159  0.98002228     0.62100
F979        F  0.88869656  0.04882556  0.97576122    -0.23000
F980        F  0.82853163  0.07204471  0.02394220    -0.20400
F981        F  0.82039791  0.07650122  0.94316556    -0.20000
F982        F  0.81236391  0.82126504  0.96960703    -0.20100
F983        F  0.73624326  0.84084153  0.94886475    -0.20400
F984        F  0.75861137  0.84058176  0.02633641    -0.23100
C985        C  0.98142487  0.93392281  0.82890868    -0.05900
C986        C  0.93179401  0.93656266  0.81916948     0.00000
C987        C  0.91376340  0.97427303  0.79181578    -0.08600
C988        C  0.94704127  0.00361432  0.76829795    -0.05900
C989        C  0.99722710  0.99742203  0.77319128     0.00000
C990        C  0.01471943  0.96490483  0.80725440    -0.08500
C991        C  0.06740297  0.96195568  0.82186220     0.61900
H992        H  0.99435290  0.90721377  0.85334076     0.12600
H993        H  0.93354446  0.03007422  0.74390124     0.12600
C994        C  0.85999489  0.98384723  0.78720857     0.62100
F995        F  0.07074296  0.95408388  0.87088354    -0.23000
F996        F  0.09246527  0.00364520  0.81254772    -0.20400
F997        F  0.08899122  0.92462270  0.79747505    -0.20000
F998        F  0.83719267  0.97878871  0.83128640    -0.20100
F999        F  0.83938113  0.95264684  0.75423291    -0.20400
F1000       F  0.85185630  0.02969716  0.77187075    -0.23100
C1001       C  0.77406677  0.77553476  0.83478950    -0.05900
C1002       C  0.81499910  0.79467619  0.81077503     0.00000
C1003       C  0.82777290  0.77481787  0.76483841    -0.08600
C1004       C  0.79384964  0.74555916  0.74142439    -0.05900
C1005       C  0.75068804  0.73184946  0.76375856     0.00000
C1006       C  0.74101596  0.74525770  0.81162351    -0.08500
C1007       C  0.69624005  0.72741546  0.83796231     0.61900
H1008       H  0.76768542  0.78434612  0.87224014     0.12600
H1009       H  0.80101946  0.73309230  0.70496258     0.12600
C1010       C  0.87626103  0.78114643  0.73946145     0.62100
F1011       F  0.69634560  0.74078061  0.88616612    -0.23000
F1012       F  0.69401576  0.67832849  0.83537568    -0.20400
F1013       F  0.65531735  0.74577846  0.81701609    -0.20000
F1014       F  0.91347857  0.78770707  0.77176646    -0.20100
F1015       F  0.87435988  0.81900700  0.70829791    -0.20400
F1016       F  0.88738589  0.74095333  0.71246352    -0.23100
C1017       C  0.93846111  0.82730947  0.97863071    -0.05900
C1018       C  0.94769654  0.82179819  0.92920139     0.00000
C1019       C  0.99084470  0.80063033  0.91292488    -0.08600
C1020       C  0.01996782  0.77926091  0.94690206    -0.05900
C1021       C  0.00741805  0.77896921  0.99600766     0.00000
C1022       C  0.96915680  0.80771883  0.01284736    -0.08500
C1023       C  0.96005844  0.81958216  0.06551768     0.61900
H1024       H  0.90668637  0.84649579  0.99054631     0.12600
H1025       H  0.05132900  0.76006255  0.93400115     0.12600
C1026       C  0.00800987  0.79851808  0.86090528     0.62100
F1027       F  0.95105746  0.86767087  0.07060561    -0.23000
F1028       F  0.99953989  0.80969729  0.09401450    -0.20400
F1029       F  0.92009769  0.79444161  0.08173206    -0.20000
F1030       F  0.05403840  0.81804389  0.85817853    -0.20100
F1031       F  0.97909874  0.82307520  0.82976209    -0.20400
F1032       F  0.00966118  0.75161945  0.84556578    -0.23100
loop_ 
_geom_bond_atom_site_label_1 
_geom_bond_atom_site_label_2 
_geom_bond_distance 
_geom_bond_site_symmetry_2 
_ccdc_geom_bond_type 
C1            C2   1.531       .  S
C1            C7   1.538       .  S
C1            C5   1.544       .  S
C1         C1002   1.526       .  S
C2            H9   1.087       .  S
C2            C3   1.358       .  D
C3            C4   1.515       .  S
C3         C1018   1.452       .  S
C4            C8   1.525       .  S
C4            C6   1.524       .  S
C4           H10   1.112       .  S
C5           H11   1.083       .  S
C5            C6   1.360       .  D
C6          C970   1.467       .  S
C7           H12   1.077       .  S
C7            C8   1.367       .  D
C8          C986   1.464       .  S
C13          N31   1.366       .  A
C13          C50   1.471       .  S
C13         C248   1.527   1_655  S
N14          N31   1.341       .  A
N14          N36   1.321       .  A
N14         Co51   2.146       .  S
C15          N40   1.353       .  A
C15          C53   1.469       .  S
C15          H60   1.082       .  S
H16          C57   1.082       .  S
C17          N41   1.353       .  A
C17          C21   1.468       .  S
C17          H46   1.081       .  S
Co18         N36   2.127       .  S
Co18         N26   2.052       .  S
Co18         N58   2.060       .  S
Co18         N34   2.150       .  S
Co18        Cl62   2.459       .  S
N19          C57   1.339       .  A
N19          N26   1.320       .  A
N19         Co20   2.089       .  S
Co20         N23   2.130       .  S
Co20         N40   2.119       .  S
Co20         N27   2.085       .  S
Co20        Cl62   2.463       .  S
C21          N59   1.362       .  A
C21         C464   1.513       .  S
N22          N29   1.322       .  A
N22          N52   1.318       .  A
N22         Co55   2.064       .  S
N23          N41   1.320       .  A
N23          N59   1.336       .  A
N24          C53   1.366       .  A
N24          N34   1.341       .  A
H25          C50   1.081   1_545  S
N26          N47   1.314       .  A
N27          N45   1.321       .  A
N27          N32   1.321       .  A
C28          N32   1.350       .  A
C28          C56   1.461       .  S
C28         C906   1.473       .  S
N29          C44   1.331       .  A
N29         Co51   2.066       .  S
C30          N58   1.330       .  A
C30          C33   1.449       .  S
C30          H64   1.082   1_565  S
C33          N54   1.341       .  A
C33         C922   1.436       .  S
N34          N40   1.321       .  A
N35          C61   1.356       .  A
N35          N37   1.321       .  A
N35         Co51   2.142       .  S
N36          C50   1.354       .  A
N37          N65   1.339       .  A
N37         Co55   2.133       .  S
H38          C61   1.082   1_455  S
H39          C56   1.081       .  S
N41         Co55   2.119       .  S
N42          N54   1.315       .  A
N42          N58   1.324       .  A
N42         Co51   2.059       .  S
C43          N47   1.339       .  A
C43          C57   1.469       .  S
C43         C954   1.472       .  S
C44          C63   1.455       .  S
C44          H48   1.082   1_655  S
N45          C56   1.337       .  A
N45         Co55   2.075       .  S
C49          N65   1.363       .  A
C49          C61   1.476       .  S
C49         C291   1.526   1_655  S
Co51        Cl62   2.465       .  S
N52          C63   1.342       .  A
C53         C364   1.524   1_565  S
Co55        Cl62   2.465       .  S
C63         C938   1.442       .  S
C66          N84   1.351       .  A
C66         C103   1.461       .  S
C66         C874   1.472       .  S
N67          N84   1.319       .  A
N67          N89   1.320       .  A
N67        Co104   2.081       .  S
C68          N93   1.334       .  A
C68         C106   1.459       .  S
C68         H113   1.082   1_655  S
H69         C110   1.081   1_455  S
C70          N94   1.337       .  A
C70          C74   1.461       .  S
C70          H99   1.082       .  S
Co71         N89   2.068       .  S
Co71         N79   2.129       .  S
Co71        N111   2.127       .  S
Co71         N87   2.063       .  S
Co71       Cl115   2.464       .  S
N72         C110   1.357       .  A
N72          N79   1.321       .  A
N72         Co73   2.134       .  S
Co73         N76   2.060       .  S
Co73         N93   2.076       .  S
Co73         N80   2.151       .  S
Co73       Cl115   2.466       .  S
C74         N112   1.340       .  A
C74         C890   1.465       .  S
N75          N82   1.320       .  A
N75         N105   1.339       .  A
N75        Co108   2.139       .  S
N76          N94   1.322       .  A
N76         N112   1.314       .  A
N77         C106   1.341       .  A
N77          N87   1.317       .  A
H78         C103   1.079       .  S
N79         N100   1.336       .  A
N80          N98   1.321       .  A
N80          N85   1.340       .  A
C81          N85   1.367       .  A
C81         C109   1.464       .  S
C81         C208   1.518   1_655  S
N82          C97   1.355       .  A
N82        Co104   2.125       .  S
C83         N111   1.354       .  A
C83          C86   1.472       .  S
C83         H117   1.081   1_556  S
C86         N107   1.364       .  A
C86         C344   1.522   1_556  S
N87          N93   1.324       .  A
N88         C114   1.337       .  A
N88          N90   1.319       .  A
N88        Co104   2.073       .  S
N89         C103   1.336       .  A
N90         N118   1.316       .  A
N90        Co108   2.073       .  S
H91         C114   1.078       .  S
H92         C109   1.082       .  S
N94        Co108   2.073       .  S
N95         N107   1.339       .  A
N95         N111   1.321       .  A
N95        Co104   2.141       .  S
C96         N100   1.360       .  A
C96         C110   1.475       .  S
C96         C281   1.520   1_655  S
C97         C116   1.472       .  S
C97         H101   1.082       .  S
N98         C109   1.350       .  A
N98        Co108   2.112       .  S
C102        N118   1.348       .  A
C102        C114   1.469       .  S
C102        C845   1.477       .  S
Co104      Cl115   2.471       .  S
N105        C116   1.363       .  A
C106        C858   1.462   1_556  S
Co108      Cl115   2.453       .  S
C116        C494   1.521       .  S
C119        N137   1.360       .  A
C119        C156   1.476       .  S
C119        C334   1.522   1_566  S
N120        N137   1.337       .  A
N120        N142   1.321       .  A
N120       Co157   2.128       .  S
C121        N146   1.351       .  A
C121        C159   1.465       .  S
C121        H166   1.082       .  S
H122        C163   1.082       .  S
C123        N147   1.355       .  A
C123        C127   1.474       .  S
C123        H152   1.082       .  S
Co124       N142   2.137       .  S
Co124       N132   2.071       .  S
Co124       N164   2.088       .  S
Co124       N140   2.154       .  S
Co124      Cl168   2.470       .  S
N125        C163   1.330       .  A
N125        N132   1.322       .  A
N125       Co126   2.072       .  S
Co126       N129   2.114       .  S
Co126       N146   2.109       .  S
Co126       N133   2.071       .  S
Co126      Cl168   2.453       .  S
C127        N165   1.358       .  A
C127        C474   1.512       .  S
N128        N135   1.318       .  A
N128        N158   1.317       .  A
N128       Co161   2.062       .  S
N129        N147   1.318       .  A
N129        N165   1.335       .  A
N130        C159   1.368       .  A
N130        N140   1.342       .  A
H131        C156   1.081   1_554  S
N132        N153   1.320       .  A
N133        N151   1.320       .  A
N133        N138   1.318       .  A
C134        N138   1.347       .  A
C134        C162   1.451       .  S
C134        C778   1.439       .  S
N135        C150   1.328       .  A
N135       Co157   2.053       .  S
C136        N164   1.333       .  A
C136        C139   1.455       .  S
C136        H170   1.082   1_556  S
C139        N160   1.338       .  A
C139        C794   1.446   1_565  S
N140        N146   1.321       .  A
N141        C167   1.360   1_565  A
N141        N143   1.319       .  A
N141       Co157   2.144       .  S
N142        C156   1.356       .  A
N143        N171   1.339       .  A
N143       Co161   2.132       .  S
H144        C167   1.082       .  S
H145        C162   1.081       .  S
N147       Co161   2.123       .  S
N148        N160   1.317       .  A
N148        N164   1.327       .  A
N148       Co157   2.056       .  S
C149        N153   1.347       .  A
C149        C163   1.456       .  S
C149        C810   1.454       .  S
C150        C169   1.455       .  S
C150        H154   1.081   1_565  S
N151        C162   1.329       .  A
N151       Co161   2.056       .  S
C155        N171   1.361       .  A
C155        C167   1.481   1_565  S
C155        C216   1.530   1_565  S
Co157      Cl168   2.463       .  S
N158        C169   1.350       .  A
C159        C311   1.524   1_556  S
Co161      Cl168   2.458       .  S
C169        C826   1.446       .  S
C172        C173   1.524       .  S
C172        C178   1.516       .  S
C172        C176   1.534       .  S
C172        C746   1.503       .  S
C173        H180   1.083       .  S
C173        C174   1.371       .  D
C174        C175   1.551       .  S
C174        C762   1.507       .  S
C175        C179   1.529       .  S
C175        C177   1.540       .  S
C175        H181   1.099       .  S
C176        H182   1.086       .  S
C176        C177   1.361       .  D
C177        C733   1.462       .  S
C178        H183   1.088       .  S
C178        C179   1.352       .  D
C179        C714   1.461       .  S
C184        C185   1.535       .  S
C184        C190   1.519       .  S
C184        C188   1.546       .  S
C184        C698   1.516       .  S
C185        H192   1.082       .  S
C185        C186   1.364       .  D
C186        C187   1.526       .  S
C186        C682   1.462       .  S
C187        C191   1.528       .  S
C187        C189   1.518       .  S
C187        H193   1.104       .  S
C188        H194   1.087       .  S
C188        C189   1.367       .  D
C189        C650   1.468       .  S
C190        H195   1.086       .  S
C190        C191   1.356       .  D
C191        C666   1.456       .  S
C196        C197   1.525       .  S
C196        C202   1.546       .  S
C196        C200   1.518       .  S
C196        C605   1.508       .  S
C197        H204   1.086       .  S
C197        C198   1.362       .  D
C198        C199   1.538       .  S
C198        C634   1.463       .  S
C199        C203   1.515       .  S
C199        C201   1.538       .  S
C199        H205   1.110       .  S
C200        H206   1.086       .  S
C200        C201   1.355       .  D
C201        C621   1.473       .  S
C202        H207   1.084       .  S
C202        C203   1.359       .  D
C203        C586   1.451       .  S
C208        N226   1.361       .  A
C208        C245   1.475   1_455  S
N209        N226   1.338       .  A
N209        N231   1.320       .  A
N209       Co246   2.130       .  S
C210        N235   1.358   1_565  A
C210        C248   1.476       .  S
C210        H255   1.081       .  S
H211        C252   1.080   1_565  S
C212        N236   1.358       .  A
C212        C216   1.478       .  S
C212        H241   1.081       .  S
Co213       N231   2.133       .  S
Co213       N221   2.060       .  S
Co213       N253   2.047       .  S
Co213       N229   2.140       .  S
Co213      Cl257   2.454       .  S
N214        C252   1.340       .  A
N214        N221   1.321       .  A
N214       Co215   2.087       .  S
Co215       N218   2.140       .  S
Co215       N235   2.132       .  S
Co215       N222   2.071       .  S
Co215      Cl257   2.476       .  S
C216        N254   1.363       .  A
N217        N224   1.324       .  A
N217        N247   1.318       .  A
N217       Co250   2.073       .  S
N218        N236   1.323       .  A
N218        N254   1.339       .  A
N219        C248   1.363   1_645  A
N219        N229   1.338   1_655  A
H220        C245   1.082       .  S
N221        N242   1.315       .  A
N222        N240   1.321       .  A
N222        N227   1.317       .  A
C223        N227   1.348       .  A
C223        C251   1.463       .  S
C223        C685   1.468   1_545  S
N224        C239   1.336       .  A
N224       Co246   2.069       .  S
C225        N253   1.331   1_655  A
C225        C228   1.444   1_655  S
C225        H259   1.082       .  S
C228        N249   1.349       .  A
C228        C618   1.445   1_455  S
N229        N235   1.320       .  A
N230        C256   1.359       .  A
N230        N232   1.322       .  A
N230       Co246   2.133       .  S
N231        C245   1.354   1_455  A
N232        N260   1.337       .  A
N232       Co250   2.144       .  S
H233        C256   1.082       .  S
H234        C251   1.080       .  S
N236       Co250   2.144       .  S
N237        N249   1.320       .  A
N237        N253   1.322       .  A
N237       Co246   2.087       .  S
C238        N242   1.344       .  A
C238        C252   1.469       .  S
C238        C989   1.471   1_445  S
C239        C258   1.449       .  S
C239        H243   1.082       .  S
N240        C251   1.336       .  A
N240       Co250   2.074       .  S
C244        N260   1.363       .  A
C244        C256   1.477       .  S
C244        C391   1.527       .  S
Co246      Cl257   2.472       .  S
N247        C258   1.344       .  A
Co250      Cl257   2.460       .  S
C258        C717   1.445       .  S
C261        N279   1.345       .  A
C261        C298   1.465       .  S
C261       C1021   1.466   1_554  S
N262        N279   1.313       .  A
N262        N284   1.321       .  A
N262       Co299   2.066       .  S
C263        N288   1.323       .  A
C263        C301   1.450       .  S
C263        H308   1.081       .  S
H264        C305   1.081       .  S
C265        N289   1.333       .  A
C265        C269   1.458       .  S
C265        H294   1.082       .  S
Co266       N284   2.072       .  S
Co266       N274   2.137       .  S
Co266       N306   2.118       .  S
Co266       N282   2.066       .  S
Co266      Cl310   2.486       .  S
N267        C305   1.355       .  A
N267        N274   1.320       .  A
N267       Co268   2.130       .  S
Co268       N271   2.049       .  S
Co268       N288   2.046       .  S
Co268       N275   2.119       .  S
Co268      Cl310   2.433       .  S
C269        N307   1.339       .  A
C269        C653   1.455       .  S
N270        N277   1.320       .  A
N270        N300   1.340       .  A
N270       Co303   2.139       .  S
N271        N289   1.321       .  A
N271        N307   1.314       .  A
N272        C301   1.349       .  A
N272        N282   1.320       .  A
H273        C298   1.080   1_655  S
N274        N295   1.340   1_455  A
N275        N293   1.319       .  A
N275        N280   1.335       .  A
C276        N280   1.356       .  A
C276        C304   1.479       .  S
C276        C427   1.516       .  S
N277        C292   1.354   1_554  A
N277       Co299   2.132       .  S
C278        N306   1.352   1_655  A
C278        C281   1.468   1_654  S
C278        H312   1.082       .  S
C281        N302   1.364       .  A
N282        N288   1.318       .  A
N283        C309   1.336   1_554  A
N283        N285   1.323       .  A
N283       Co299   2.071       .  S
N284        C298   1.337       .  A
N285        N313   1.318       .  A
N285       Co303   2.080       .  S
H286        C309   1.082       .  S
H287        C304   1.082       .  S
N289       Co303   2.068       .  S
N290        N302   1.340   1_554  A
N290        N306   1.321       .  A
N290       Co299   2.144       .  S
C291        N295   1.364   1_455  A
C291        C305   1.473       .  S
C292        C311   1.474   1_556  S
C292        H296   1.082       .  S
N293        C304   1.357       .  A
N293       Co303   2.135       .  S
C297        N313   1.345       .  A
C297        C309   1.458   1_554  S
C297        C730   1.468   1_554  S
Co299      Cl310   2.447       .  S
N300        C311   1.365       .  A
C301        C602   1.451       .  S
Co303      Cl310   2.474       .  S
C314        N332   1.345       .  A
C314        C351   1.464       .  S
C314        C973   1.463   1_545  S
N315        N332   1.316       .  A
N315        N337   1.323       .  A
N315       Co352   2.065       .  S
C316        N341   1.332       .  A
C316        C354   1.450       .  S
C316        H361   1.081       .  S
H317        C358   1.082       .  S
C318        N342   1.329       .  A
C318        C322   1.452       .  S
C318        H347   1.080       .  S
Co319       N337   2.086       .  S
Co319       N327   2.137       .  S
Co319       N359   2.131       .  S
Co319       N335   2.052       .  S
Co319      Cl363   2.469       .  S
N320        C358   1.354       .  A
N320        N327   1.322       .  A
N320       Co321   2.127       .  S
Co321       N324   2.066       .  S
Co321       N341   2.062       .  S
Co321       N328   2.133       .  S
Co321      Cl363   2.454       .  S
C322        N360   1.347       .  A
C322        C589   1.446       .  S
N323        N330   1.320       .  A
N323        N353   1.340       .  A
N323       Co356   2.134       .  S
N324        N342   1.322       .  A
N324        N360   1.316       .  A
N325        C354   1.341       .  A
N325        N335   1.313       .  A
H326        C351   1.080   1_556  S
N327        N348   1.339       .  A
N328        N346   1.319       .  A
N328        N333   1.337       .  A
C329        N333   1.362       .  A
C329        C357   1.472       .  S
C329        C431   1.517       .  S
N330        C345   1.355   1_545  A
N330       Co352   2.132       .  S
C331        N359   1.357   1_556  A
C331        C334   1.476   1_556  S
C331        H365   1.082       .  S
C334        N355   1.360   1_545  A
N335        N341   1.322       .  A
N336        C362   1.328       .  A
N336        N338   1.318       .  A
N336       Co352   2.052       .  S
N337        C351   1.337       .  A
N338        N366   1.318       .  A
N338       Co356   2.064       .  S
H339        C362   1.081   1_565  S
H340        C357   1.081       .  S
N342       Co356   2.059       .  S
N343        N355   1.337   1_545  A
N343        N359   1.318       .  A
N343       Co352   2.125       .  S
C344        N348   1.363       .  A
C344        C358   1.471       .  S
C345        C364   1.475   1_565  S
C345        H349   1.082       .  S
N346        C357   1.355       .  A
N346       Co356   2.120       .  S
C350        N366   1.347       .  A
C350        C362   1.454       .  S
C350        C669   1.447   1_545  S
Co352      Cl363   2.452       .  S
N353        C364   1.364       .  A
C354        C749   1.432   1_554  S
Co356      Cl363   2.465       .  S
C367        C368   1.541       .  S
C367        C373   1.532       .  S
C367        C371   1.531       .  S
C367        C570   1.523       .  S
C368        H375   1.085       .  S
C368        C369   1.362       .  D
C369        C370   1.537       .  S
C369        C813   1.479       .  S
C370        C374   1.537       .  S
C370        C372   1.526       .  S
C370        H376   1.110       .  S
C371        H377   1.087       .  S
C371        C372   1.360       .  D
C372        C877   1.469       .  S
C373        H378   1.081       .  S
C373        C374   1.361       .  D
C374        C909   1.471       .  S
C379        C380   1.529       .  S
C379        C385   1.541       .  S
C379        C383   1.518       .  S
C379        C781   1.510       .  S
C380        H387   1.084       .  S
C380        C381   1.363       .  D
C381        C382   1.542       .  S
C381        C554   1.465       .  S
C382        C386   1.529       .  S
C382        C384   1.535       .  S
C382        H388   1.110       .  S
C383        H389   1.089       .  S
C383        C384   1.359       .  D
C384        C941   1.464       .  S
C385        H390   1.087       .  S
C385        C386   1.359       .  D
C386        C893   1.464       .  S
C391        N409   1.368       .  A
C391        C428   1.468       .  S
N392        N409   1.342       .  A
N392        N414   1.322       .  A
N392       Co429   2.158       .  S
C393        N418   1.353       .  A
C393        C431   1.470       .  S
C393        H438   1.081       .  S
H394        C435   1.082       .  S
C395        N419   1.354       .  A
C395        C399   1.472       .  S
C395        H424   1.082       .  S
Co396       N414   2.118       .  S
Co396       N404   2.087       .  S
Co396       N436   2.089       .  S
Co396       N412   2.134       .  S
Co396      Cl440   2.477       .  S
N397        C435   1.331       .  A
N397        N404   1.321       .  A
N397       Co398   2.061       .  S
Co398       N401   2.114       .  S
Co398       N418   2.121       .  S
Co398       N405   2.060       .  S
Co398      Cl440   2.448       .  S
C399        N437   1.356       .  A
C399        C459   1.506       .  S
N400        N407   1.324       .  A
N400        N430   1.320       .  A
N400       Co433   2.085       .  S
N401        N419   1.319       .  A
N401        N437   1.332       .  A
N402        C431   1.363       .  A
N402        N412   1.338       .  A
H403        C428   1.082       .  S
N404        N425   1.322       .  A
N405        N423   1.321       .  A
N405        N410   1.317       .  A
C406        N410   1.344       .  A
C406        C434   1.460       .  S
C406        C573   1.456       .  S
N407        C422   1.336       .  A
N407       Co429   2.074       .  S
C408        N436   1.339       .  A
C408        C411   1.467       .  S
C408        H442   1.080       .  S
C411        N432   1.349       .  A
C411        C522   1.477       .  S
N412        N418   1.320       .  A
N413        C439   1.357       .  A
N413        N415   1.321       .  A
N413       Co429   2.149       .  S
N414        C428   1.352       .  A
N415        N443   1.335       .  A
N415       Co433   2.108       .  S
H416        C439   1.082       .  S
H417        C434   1.081       .  S
N419       Co433   2.114       .  S
N420        N432   1.318       .  A
N420        N436   1.323       .  A
N420       Co429   2.079       .  S
C421        N425   1.351       .  A
C421        C435   1.449       .  S
C421        C541   1.455       .  S
C422        C441   1.455       .  S
C422        H426   1.082       .  S
N423        C434   1.339       .  A
N423       Co433   2.085       .  S
C427        N443   1.356       .  A
C427        C439   1.480       .  S
Co429      Cl440   2.460       .  S
N430        C441   1.346       .  A
Co433      Cl440   2.467       .  S
C441        C557   1.465       .  S
C444        N462   1.347       .  A
C444        C481   1.455       .  S
C444       C1005   1.452       .  S
N445        N462   1.318       .  A
N445        N467   1.322       .  A
N445       Co482   2.071       .  S
C446        N471   1.336       .  A
C446        C484   1.455       .  S
C446        H491   1.082       .  S
H447        C488   1.082       .  S
C448        N472   1.329       .  A
C448        C452   1.456       .  S
C448        H477   1.078       .  S
Co449       N467   2.070       .  S
Co449       N457   2.120       .  S
Co449       N489   2.114       .  S
Co449       N465   2.054       .  S
Co449      Cl493   2.461       .  S
N450        C488   1.354       .  A
N450        N457   1.321       .  A
N450       Co451   2.130       .  S
Co451       N454   2.076       .  S
Co451       N471   2.075       .  S
Co451       N458   2.131       .  S
Co451      Cl493   2.462       .  S
C452        N490   1.349       .  A
C452        C765   1.467       .  S
N453        N460   1.322       .  A
N453        N483   1.338       .  A
N453       Co486   2.136       .  S
N454        N472   1.322       .  A
N454        N490   1.322       .  A
N455        C484   1.340       .  A
N455        N465   1.316       .  A
H456        C481   1.081       .  S
N457        N478   1.335       .  A
N458        N476   1.322       .  A
N458        N463   1.336       .  A
C459        N463   1.360       .  A
C459        C487   1.465       .  S
N460        C475   1.355       .  A
N460       Co482   2.132       .  S
C461        N489   1.352       .  A
C461        C464   1.467       .  S
C461        H495   1.082       .  S
C464        N485   1.362       .  A
N465        N471   1.322       .  A
N466        C492   1.331       .  A
N466        N468   1.321       .  A
N466       Co482   2.061       .  S
N467        C481   1.334       .  A
N468        N496   1.321       .  A
N468       Co486   2.073       .  S
H469        C492   1.082       .  S
H470        C487   1.082       .  S
N472       Co486   2.066       .  S
N473        N485   1.337       .  A
N473        N489   1.320       .  A
N473       Co482   2.133       .  S
C474        N478   1.358       .  A
C474        C488   1.474       .  S
C475        C494   1.473       .  S
C475        H479   1.081       .  S
N476        C487   1.348       .  A
N476       Co486   2.111       .  S
C480        N496   1.346       .  A
C480        C492   1.451       .  S
C480        C637   1.448       .  S
Co482      Cl493   2.461       .  S
N483        C494   1.362       .  A
C484        C701   1.445       .  S
Co486      Cl493   2.462       .  S
C497        C498   1.533       .  S
C497        C503   1.558       .  S
C497        C501   1.530       .  S
C497        C538   1.530       .  S
C498        H505   1.081       .  S
C498        C499   1.360       .  D
C499        C500   1.529       .  S
C499        C829   1.466       .  S
C500        C504   1.516       .  S
C500        C502   1.528       .  S
C500        H506   1.110       .  S
C501        H507   1.086       .  S
C501        C502   1.363       .  D
C502        C842   1.465       .  S
C503        H508   1.081       .  S
C503        C504   1.361       .  D
C504        C957   1.466       .  S
C509        C510   1.548       .  S
C509        C515   1.528       .  S
C509        C513   1.516       .  S
C509        C925   1.509       .  S
C510        H517   1.087       .  S
C510        C511   1.358       .  D
C511        C512   1.525       .  S
C511        C861   1.469       .  S
C512        C516   1.541       .  S
C512        C514   1.537       .  S
C512        H518   1.109       .  S
C513        H519   1.087       .  S
C513        C514   1.352       .  D
C514        C797   1.465       .  S
C515        H520   1.083       .  S
C515        C516   1.364       .  D
C516        C525   1.467       .  S
C521        H528   1.082       .  S
C521        C522   1.406       .  A
C521        C526   1.397       .  A
C522        C523   1.418       .  A
C523        C530   1.514       .  S
C523        C524   1.403       .  A
C524        H529   1.084       .  S
C524        C525   1.398       .  A
C525        C526   1.411       .  A
C526        C527   1.516       .  S
C527        F531   1.385       .  S
C527        F532   1.381       .  S
C527        F533   1.379       .  S
C530        F534   1.382       .  S
C530        F535   1.383       .  S
C530        F536   1.382       .  S
C537        H544   1.074       .  S
C537        C538   1.410       .  A
C537        C542   1.395       .  A
C538        C539   1.435       .  A
C539        C546   1.526       .  S
C539        C540   1.403       .  A
C540        H545   1.086       .  S
C540        C541   1.394       .  A
C541        C542   1.409       .  A
C542        C543   1.525       .  S
C543        F547   1.384       .  S
C543        F548   1.382       .  S
C543        F549   1.382       .  S
C546        F550   1.376       .  S
C546        F551   1.384       .  S
C546        F552   1.384       .  S
C553        H560   1.081       .  S
C553        C554   1.398       .  A
C553        C558   1.396       .  A
C554        C555   1.408       .  A
C555        C562   1.514       .  S
C555        C556   1.404       .  A
C556        H561   1.083       .  S
C556        C557   1.405       .  A
C557        C558   1.417       .  A
C558        C559   1.522       .  S
C559        F563   1.385       .  S
C559        F564   1.383       .  S
C559        F565   1.383       .  S
C562        F566   1.383       .  S
C562        F567   1.383       .  S
C562        F568   1.385       .  S
C569        H576   1.080       .  S
C569        C570   1.412       .  A
C569        C574   1.399       .  A
C570        C571   1.421       .  A
C571        C578   1.519       .  S
C571        C572   1.397       .  A
C572        H577   1.085       .  S
C572        C573   1.399       .  A
C573        C574   1.407       .  A
C574        C575   1.519       .  S
C575        F579   1.385       .  S
C575        F580   1.382       .  S
C575        F581   1.383       .  S
C578        F582   1.383       .  S
C578        F583   1.382       .  S
C578        F584   1.385       .  S
C585        H592   1.079       .  S
C585        C586   1.399       .  A
C585        C590   1.393       .  A
C586        C587   1.405       .  A
C587        C594   1.517       .  S
C587        C588   1.393       .  A
C588        H593   1.083       .  S
C588        C589   1.404       .  A
C589        C590   1.409       .  A
C590        C591   1.521       .  S
C591        F595   1.384       .  S
C591        F596   1.383       .  S
C591        F597   1.380       .  S
C594        F598   1.382       .  S
C594        F599   1.382       .  S
C594        F600   1.384       .  S
C601        H608   1.084       .  S
C601        C602   1.400       .  A
C601        C606   1.386   1_455  A
C602        C603   1.403   1_455  A
C603        C610   1.521       .  S
C603        C604   1.395       .  A
C604        H609   1.077       .  S
C604        C605   1.415       .  A
C605        C606   1.423       .  A
C606        C607   1.528       .  S
C607        F611   1.383       .  S
C607        F612   1.385   1_655  S
C607        F613   1.378       .  S
C610        F614   1.383   1_655  S
C610        F615   1.382       .  S
C610        F616   1.385       .  S
C617        H624   1.086   1_655  S
C617        C618   1.391       .  A
C617        C622   1.394       .  A
C618        C619   1.412       .  A
C619        C626   1.521       .  S
C619        C620   1.395       .  A
C620        H625   1.079       .  S
C620        C621   1.400       .  A
C621        C622   1.425       .  A
C622        C623   1.523       .  S
C623        F627   1.384       .  S
C623        F628   1.383   1_655  S
C623        F629   1.381       .  S
C626        F630   1.383       .  S
C626        F631   1.382       .  S
C626        F632   1.384       .  S
C633        H640   1.082       .  S
C633        C634   1.405       .  A
C633        C638   1.394       .  A
C634        C635   1.413       .  A
C635        C642   1.517       .  S
C635        C636   1.399       .  A
C636        H641   1.085       .  S
C636        C637   1.401       .  A
C637        C638   1.403       .  A
C638        C639   1.517       .  S
C639        F643   1.384       .  S
C639        F644   1.383       .  S
C639        F645   1.383       .  S
C642        F646   1.381       .  S
C642        F647   1.383       .  S
C642        F648   1.384       .  S
C649        H656   1.083       .  S
C649        C650   1.400       .  A
C649        C654   1.390       .  A
C650        C651   1.420       .  A
C651        C658   1.521       .  S
C651        C652   1.397       .  A
C652        H657   1.083       .  S
C652        C653   1.398       .  A
C653        C654   1.416       .  A
C654        C655   1.524       .  S
C655        F659   1.385       .  S
C655        F660   1.383       .  S
C655        F661   1.383       .  S
C658        F662   1.374       .  S
C658        F663   1.379       .  S
C658        F664   1.385       .  S
C665        H672   1.079       .  S
C665        C666   1.403       .  A
C665        C670   1.398   1_565  A
C666        C667   1.421       .  A
C667        C674   1.527       .  S
C667        C668   1.384       .  A
C668        H673   1.084       .  S
C668        C669   1.397       .  A
C669        C670   1.407   1_565  A
C670        C671   1.518       .  S
C671        F675   1.384       .  S
C671        F676   1.383       .  S
C671        F677   1.382       .  S
C674        F678   1.386       .  S
C674        F679   1.378       .  S
C674        F680   1.382       .  S
C681        H688   1.080       .  S
C681        C682   1.399       .  A
C681        C686   1.397   1_565  A
C682        C683   1.411       .  A
C683        C690   1.517       .  S
C683        C684   1.396       .  A
C684        H689   1.082       .  S
C684        C685   1.404       .  A
C685        C686   1.414   1_565  A
C686        C687   1.516       .  S
C687        F691   1.385       .  S
C687        F692   1.383       .  S
C687        F693   1.383       .  S
C690        F694   1.380       .  S
C690        F695   1.380       .  S
C690        F696   1.385       .  S
C697        H704   1.079       .  S
C697        C698   1.414       .  A
C697        C702   1.394       .  A
C698        C699   1.423       .  A
C699        C706   1.522       .  S
C699        C700   1.398       .  A
C700        H705   1.084       .  S
C700        C701   1.398       .  A
C701        C702   1.400       .  A
C702        C703   1.518       .  S
C703        F707   1.384       .  S
C703        F708   1.383       .  S
C703        F709   1.384       .  S
C706        F710   1.383       .  S
C706        F711   1.381       .  S
C706        F712   1.385       .  S
C713        H720   1.083       .  S
C713        C714   1.406       .  A
C713        C718   1.394       .  A
C714        C715   1.413       .  A
C715        C722   1.518       .  S
C715        C716   1.399       .  A
C716        H721   1.085       .  S
C716        C717   1.399       .  A
C717        C718   1.404       .  A
C718        C719   1.519       .  S
C719        F723   1.385       .  S
C719        F724   1.384       .  S
C719        F725   1.383       .  S
C722        F726   1.380       .  S
C722        F727   1.383       .  S
C722        F728   1.383       .  S
C729        H736   1.083       .  S
C729        C730   1.407       .  A
C729        C734   1.402       .  A
C730        C731   1.421       .  A
C731        C738   1.523   1_556  S
C731        C732   1.395       .  A
C732        H737   1.084       .  S
C732        C733   1.399       .  A
C733        C734   1.405       .  A
C734        C735   1.516       .  S
C735        F739   1.384       .  S
C735        F740   1.383       .  S
C735        F741   1.383       .  S
C738        F742   1.383       .  S
C738        F743   1.384   1_554  S
C738        F744   1.385   1_554  S
C745        H752   1.078       .  S
C745        C746   1.410       .  A
C745        C750   1.391   1_556  A
C746        C747   1.431       .  A
C747        C754   1.528       .  S
C747        C748   1.388       .  A
C748        H753   1.086       .  S
C748        C749   1.391       .  A
C749        C750   1.397   1_556  A
C750        C751   1.515       .  S
C751        F755   1.382       .  S
C751        F756   1.383       .  S
C751        F757   1.384       .  S
C754        F758   1.384       .  S
C754        F759   1.377       .  S
C754        F760   1.385       .  S
C761        H768   1.076       .  S
C761        C762   1.416       .  A
C761        C766   1.390       .  A
C762        C763   1.429       .  A
C763        C770   1.515       .  S
C763        C764   1.405       .  A
C764        H769   1.084       .  S
C764        C765   1.400       .  A
C765        C766   1.408       .  A
C766        C767   1.522       .  S
C767        F771   1.385       .  S
C767        F772   1.383       .  S
C767        F773   1.383       .  S
C770        F774   1.376       .  S
C770        F775   1.383       .  S
C770        F776   1.385       .  S
C777        H784   1.086       .  S
C777        C778   1.395       .  A
C777        C782   1.392       .  A
C778        C779   1.398       .  A
C779        C786   1.517       .  S
C779        C780   1.392       .  A
C780        H785   1.080       .  S
C780        C781   1.416       .  A
C781        C782   1.426       .  A
C782        C783   1.524       .  S
C783        F787   1.385       .  S
C783        F788   1.377       .  S
C783        F789   1.383       .  S
C786        F790   1.383       .  S
C786        F791   1.383       .  S
C786        F792   1.385       .  S
C793        H800   1.086       .  S
C793        C794   1.390   1_565  A
C793        C798   1.389   1_566  A
C794        C795   1.413   1_556  A
C795        C802   1.520   1_554  S
C795        C796   1.398       .  A
C796        H801   1.082       .  S
C796        C797   1.402       .  A
C797        C798   1.426       .  A
C798        C799   1.525   1_545  S
C799        F803   1.384   1_554  S
C799        F804   1.377   1_565  S
C799        F805   1.383       .  S
C802        F806   1.383       .  S
C802        F807   1.383   1_556  S
C802        F808   1.385   1_556  S
C809        H816   1.085       .  S
C809        C810   1.394       .  A
C809        C814   1.390   1_556  A
C810        C811   1.406   1_556  A
C811        C818   1.518       .  S
C811        C812   1.401       .  A
C812        H817   1.081       .  S
C812        C813   1.410       .  A
C813        C814   1.427       .  A
C814        C815   1.524       .  S
C815        F819   1.382       .  S
C815        F820   1.371       .  S
C815        F821   1.386   1_554  S
C818        F822   1.382       .  S
C818        F823   1.383   1_554  S
C818        F824   1.385       .  S
C825        H832   1.083   1_545  S
C825        C826   1.398   1_545  A
C825        C830   1.391       .  A
C826        C827   1.403   1_565  A
C827        C834   1.521   1_545  S
C827        C828   1.396       .  A
C828        H833   1.079       .  S
C828        C829   1.408       .  A
C829        C830   1.424       .  A
C830        C831   1.528       .  S
C831        F835   1.386       .  S
C831        F836   1.380       .  S
C831        F837   1.381       .  S
C834        F838   1.383       .  S
C834        F839   1.381   1_565  S
C834        F840   1.384   1_565  S
C841        H848   1.082       .  S
C841        C842   1.400       .  A
C841        C846   1.397       .  A
C842        C843   1.409       .  A
C843        C850   1.514       .  S
C843        C844   1.398       .  A
C844        H849   1.082       .  S
C844        C845   1.408       .  A
C845        C846   1.413       .  A
C846        C847   1.514       .  S
C847        F851   1.384       .  S
C847        F852   1.383       .  S
C847        F853   1.384       .  S
C850        F854   1.382       .  S
C850        F855   1.381       .  S
C850        F856   1.384       .  S
C857        H864   1.082       .  S
C857        C858   1.398   1_456  A
C857        C862   1.395   1_556  A
C858        C859   1.418       .  A
C859        C866   1.522       .  S
C859        C860   1.397   1_655  A
C860        H865   1.083       .  S
C860        C861   1.400       .  A
C861        C862   1.415       .  A
C862        C863   1.515   1_554  S
C863        F867   1.385       .  S
C863        F868   1.376       .  S
C863        F869   1.377       .  S
C866        F870   1.382       .  S
C866        F871   1.384       .  S
C866        F872   1.385       .  S
C873        H880   1.083       .  S
C873        C874   1.400       .  A
C873        C878   1.395       .  A
C874        C875   1.414       .  A
C875        C882   1.514   1_556  S
C875        C876   1.399   1_556  A
C876        H881   1.083       .  S
C876        C877   1.399       .  A
C877        C878   1.414   1_554  A
C878        C879   1.510       .  S
C879        F883   1.385       .  S
C879        F884   1.381       .  S
C879        F885   1.380       .  S
C882        F886   1.383   1_554  S
C882        F887   1.383       .  S
C882        F888   1.384       .  S
C889        H896   1.082       .  S
C889        C890   1.403       .  A
C889        C894   1.399       .  A
C890        C891   1.423   1_655  A
C891        C898   1.524       .  S
C891        C892   1.393       .  A
C892        H897   1.083       .  S
C892        C893   1.396       .  A
C893        C894   1.410   1_455  A
C894        C895   1.513       .  S
C895        F899   1.385       .  S
C895        F900   1.381       .  S
C895        F901   1.380       .  S
C898        F902   1.383       .  S
C898        F903   1.383       .  S
C898        F904   1.385       .  S
C905        H912   1.083       .  S
C905        C906   1.403       .  A
C905        C910   1.400       .  A
C906        C907   1.417       .  A
C907        C914   1.517       .  S
C907        C908   1.401       .  A
C908        H913   1.083       .  S
C908        C909   1.399       .  A
C909        C910   1.417       .  A
C910        C911   1.522       .  S
C911        F915   1.380       .  S
C911        F916   1.379       .  S
C911        F917   1.385       .  S
C914        F918   1.383       .  S
C914        F919   1.383       .  S
C914        F920   1.385       .  S
C921        H928   1.085       .  S
C921        C922   1.397   1_455  A
C921        C926   1.396   1_565  A
C922        C923   1.399       .  A
C923        C930   1.521       .  S
C923        C924   1.387   1_665  A
C924        H929   1.080       .  S
C924        C925   1.414       .  A
C925        C926   1.426       .  A
C926        C927   1.523       .  S
C927        F931   1.383       .  S
C927        F932   1.380       .  S
C927        F933   1.386   1_545  S
C930        F934   1.382       .  S
C930        F935   1.383       .  S
C930        F936   1.385       .  S
C937        H944   1.084       .  S
C937        C938   1.403   1_455  A
C937        C942   1.399       .  A
C938        C939   1.401       .  A
C939        C946   1.519       .  S
C939        C940   1.389   1_655  A
C940        H945   1.083       .  S
C940        C941   1.407       .  A
C941        C942   1.407       .  A
C942        C943   1.516       .  S
C943        F947   1.385       .  S
C943        F948   1.382       .  S
C943        F949   1.381       .  S
C946        F950   1.383       .  S
C946        F951   1.383       .  S
C946        F952   1.385       .  S
C953        H960   1.082       .  S
C953        C954   1.403       .  A
C953        C958   1.401   1_565  A
C954        C955   1.426   1_565  A
C955        C962   1.525       .  S
C955        C956   1.394       .  A
C956        H961   1.083       .  S
C956        C957   1.394       .  A
C957        C958   1.413       .  A
C958        C959   1.516   1_545  S
C959        F963   1.385       .  S
C959        F964   1.379       .  S
C959        F965   1.378       .  S
C962        F966   1.383       .  S
C962        F967   1.383       .  S
C962        F968   1.386       .  S
C969        H976   1.084       .  S
C969        C970   1.403       .  A
C969        C974   1.398       .  A
C970        C971   1.417       .  A
C971        C978   1.523       .  S
C971        C972   1.395   1_556  A
C972        H977   1.084       .  S
C972        C973   1.404       .  A
C973        C974   1.411   1_554  A
C974        C975   1.517   1_565  S
C975        F979   1.384       .  S
C975        F980   1.384   1_556  S
C975        F981   1.382       .  S
C978        F982   1.383       .  S
C978        F983   1.382       .  S
C978        F984   1.385   1_556  S
C985        H992   1.083       .  S
C985        C986   1.403       .  A
C985        C990   1.401   1_655  A
C986        C987   1.409       .  A
C987        C994   1.520       .  S
C987        C988   1.396   1_565  A
C988        H993   1.083       .  S
C988        C989   1.408   1_545  A
C989        C990   1.414   1_655  A
C990        C991   1.517       .  S
C991        F995   1.384       .  S
C991        F996   1.383   1_565  S
C991        F997   1.383       .  S
C994        F998   1.382       .  S
C994        F999   1.381       .  S
C994       F1000   1.385   1_565  S
C1001      H1008   1.080       .  S
C1001      C1002   1.417       .  A
C1001      C1006   1.396       .  A
C1002      C1003   1.430       .  A
C1003      C1010   1.522       .  S
C1003      C1004   1.398       .  A
C1004      H1009   1.085       .  S
C1004      C1005   1.396       .  A
C1005      C1006   1.402       .  A
C1006      C1007   1.520       .  S
C1007      F1011   1.385       .  S
C1007      F1012   1.383       .  S
C1007      F1013   1.382       .  S
C1010      F1014   1.377       .  S
C1010      F1015   1.382       .  S
C1010      F1016   1.386       .  S
C1017      H1024   1.085       .  S
C1017      C1018   1.401       .  A
C1017      C1022   1.398   1_556  A
C1018      C1019   1.410       .  A
C1019      C1026   1.518   1_655  S
C1019      C1020   1.389   1_655  A
C1020      H1025   1.084       .  S
C1020      C1021   1.405       .  A
C1021      C1022   1.414   1_456  A
C1022      C1023   1.516       .  S
C1023      F1027   1.384       .  S
C1023      F1028   1.383       .  S
C1023      F1029   1.383       .  S
C1026      F1030   1.384       .  S
C1026      F1031   1.376   1_455  S
C1026      F1032   1.383       .  S
