geometry optimzed in LAMMPS
_audit_creation_date              2020-11-30 
_audit_creation_method            'lammps2cif' 
_symmetry_space_group_name_H-M    'P1' 
_symmetry_Int_Tables_number       1 
_symmetry_cell_setting            triclinic 
loop_ 
_symmetry_equiv_pos_as_xyz 
  x,y,z 
_cell_length_a                    51.40450344 
_cell_length_b                    51.48255912956151 
_cell_length_c                    30.569463371593343 
_cell_angle_alpha                 90.10567899292501 
_cell_angle_beta                  90.03274864760601 
_cell_angle_gamma                 119.93390482593989 
loop_ 
_atom_site_label 
_atom_site_type_symbol 
_atom_site_fract_x 
_atom_site_fract_y 
_atom_site_fract_z 
_atom_site_charge 
C1          C  0.22447316  0.21398796  0.28755122     0.79600
N2          N  0.22368511  0.21482419  0.24322173    -0.78700
C3          C  0.24656595  0.23750344  0.22080418     0.82000
N4          N  0.27003289  0.25971664  0.24327921    -0.78700
C5          C  0.27091321  0.25916621  0.28766466     0.82100
N6          N  0.24818062  0.23606559  0.30945434    -0.80400
C7          C  0.22598323  0.21871512  0.82202847     0.79600
N8          N  0.22689313  0.21621323  0.86625533    -0.78700
C9          C  0.24921562  0.23863590  0.89016028     0.82000
N10         N  0.27093090  0.26330918  0.86939245    -0.78700
C11         C  0.27029299  0.26597300  0.82535083     0.82100
N12         N  0.24764837  0.24372081  0.80202133    -0.80400
C13         C  0.24796886  0.48003065  0.28790517     0.79600
N14         N  0.22664614  0.48376620  0.30836717    -0.78700
C15         C  0.20459581  0.48473607  0.28535107     0.82000
N16         N  0.20421934  0.48238637  0.24110891    -0.78700
C17         C  0.22562920  0.47896625  0.21999051     0.82100
N18         N  0.24732009  0.47750520  0.24360420    -0.80400
C19         C  0.24490976  0.47435226  0.82154270     0.79600
N20         N  0.24658213  0.47609317  0.86594528    -0.78700
C21         C  0.22342815  0.47449008  0.88976060     0.82000
N22         N  0.19875163  0.47154385  0.86869772    -0.78700
C23         C  0.19688063  0.46973504  0.82444254     0.82100
N24         N  0.21994816  0.47101814  0.80125743    -0.80400
C25         C  0.48468360  0.23661797  0.28636619     0.79600
N26         N  0.48395165  0.21327764  0.30805994    -0.78700
C27         C  0.48615597  0.19147724  0.28616323     0.82000
N28         N  0.48852926  0.19290712  0.24187727    -0.78700
C29         C  0.48890775  0.21596160  0.21958205     0.82100
N30         N  0.48728463  0.23792949  0.24211241    -0.80400
C31         C  0.49006335  0.23830951  0.82160941     0.79600
N32         N  0.48713197  0.23722334  0.86591666    -0.78700
C33         C  0.48797985  0.21506275  0.88906330     0.82000
N34         N  0.49119803  0.19371634  0.86751483    -0.78700
C35         C  0.49400066  0.19454579  0.82339735     0.82100
N36         N  0.49366382  0.21700017  0.80077280    -0.80400
O37         O  0.41965491  0.00147538  0.50684515    -0.88800
C38         C  0.07342157  0.06381857  0.61740374     1.11200
O39         O  0.45500409  0.47654478  0.55473636    -1.36600
O40         O  0.05172231  0.06673810  0.50328442    -0.90300
O41         O  0.39506018  0.45139885  0.50494568    -0.91000
O42         O  0.45466921  0.44452658  0.46258715    -0.79800
O43         O  0.48604895  0.03481482  0.51314557    -1.01900
C44         C  0.04057085  0.47676128  0.47416706     1.21300
O45         O  0.48608250  0.44519766  0.55476986    -1.36800
Mn46       Mn  0.48638953  0.47668897  0.60207617     1.82100
O47         O  0.01710756  0.47639041  0.46203786    -0.78900
O48         O  0.07750365  0.04240848  0.50572753    -0.88300
C49         C  0.04047451  0.47596549  0.63460533     1.12300
C50         C  0.07208971  0.06183281  0.48907770     1.07100
O51         O  0.45527209  0.44623019  0.64735022    -0.79800
O52         O  0.01745839  0.00757607  0.55425514    -1.33500
O53         O  0.42735851  0.41822181  0.59658769    -0.99000
C54         C  0.48521060  0.38964582  0.49031775     1.05800
Mn55       Mn  0.05986087  0.00995693  0.55477838     1.48600
O56         O  0.46057742  0.38462512  0.50735061    -0.88200
Mn57       Mn  0.41255560  0.43672567  0.55476973     1.49600
O58         O  0.42074222  0.00215939  0.60493891    -0.92100
C59         C  0.48612950  0.03052439  0.47394612     1.19000
C60         C  0.39990293  0.47705404  0.61878103     1.11000
Mn61       Mn  0.48591023  0.47614530  0.50696396     1.81000
O62         O  0.04502290  0.47612836  0.59544458    -0.94100
Mn63       Mn  0.45283770  0.01658478  0.55502508     1.49300
C64         C  0.39970124  0.47659301  0.49089984     1.07600
Mn65       Mn  0.02603470  0.44266533  0.55369028     1.49900
C66         C  0.48664713  0.39009286  0.61876008     1.10500
O67         O  0.42737734  0.41763582  0.51449361    -1.03000
O68         O  0.07772834  0.04277897  0.60421867    -0.92700
C69         C  0.43139302  0.42154403  0.47522933     1.21700
O70         O  0.04476973  0.47650128  0.51334954    -1.03400
O71         O  0.05343151  0.06860049  0.60115668    -0.90800
O72         O  0.01134636  0.40969178  0.60198733    -0.90400
O73         O  0.39473015  0.45208594  0.60287399    -0.90500
Mn74       Mn  0.02002176  0.05000901  0.55332370     1.47900
O75         O  0.01732047  0.47622506  0.64659926    -0.78900
C76         C  0.43185084  0.42298863  0.63570551     1.14800
O77         O  0.48543640  0.00692186  0.46183893    -0.77700
O78         O  0.48728003  0.00833974  0.64665385    -0.77300
Mn79       Mn  0.44606510  0.40294282  0.55600387     1.51100
O80         O  0.01066513  0.41034007  0.50368705    -0.89600
O81         O  0.48703147  0.03559736  0.59519017    -0.97200
O82         O  0.46125757  0.38568926  0.60564772    -0.92200
C83         C  0.48776683  0.03176738  0.63435859     1.12600
C84         C  0.51264641  0.15516235  0.73514760    -0.11500
C85         C  0.49837775  0.12546461  0.75048744     0.05700
C86         C  0.48485385  0.11922105  0.79201165    -0.10300
C87         C  0.48439685  0.14194420  0.81664107    -0.11900
C88         C  0.49708953  0.17116613  0.79989082    -0.01700
C89         C  0.51170890  0.17765934  0.75932715    -0.10800
C90         C  0.49575153  0.10100884  0.72162453     0.05700
H91         H  0.47350422  0.09657581  0.80465102     0.07600
H92         H  0.47298036  0.13637412  0.84789178     0.11100
H93         H  0.52217699  0.20012733  0.74603384     0.11300
H94         H  0.52404451  0.16093606  0.70389202     0.07600
C95         C  0.49074331  0.10198432  0.67665902    -0.11500
C96         C  0.48797006  0.07933900  0.64887187    -0.10800
C97         C  0.48985465  0.05485405  0.66521086    -0.01700
C98         C  0.49447195  0.05345130  0.71023967    -0.11900
C99         C  0.49741297  0.07638132  0.73826140    -0.10300
H100        H  0.48850468  0.12012009  0.66283577     0.07600
H101        H  0.48425078  0.08103914  0.61436847     0.11300
H102        H  0.99613732  0.03487902  0.72364840     0.11100
H103        H  0.00138214  0.07504914  0.77274890     0.07600
C104        C  0.47677192  0.30162198  0.78641565    -0.11500
C105        C  0.48958295  0.30797458  0.74442702     0.05700
C106        C  0.00259271  0.29151286  0.72846353    -0.10300
C107        C  0.00267911  0.26903030  0.75367524    -0.11900
C108        C  0.49007549  0.26264895  0.79578868    -0.01700
C109        C  0.47729717  0.27932847  0.81211441    -0.10800
C110        C  0.48925866  0.33129063  0.71645339     0.05700
H111        H  0.01230850  0.29573334  0.69601727     0.07600
H112        H  0.01279493  0.25670463  0.74013307     0.11100
H113        H  0.46731664  0.27482730  0.84438043     0.11300
H114        H  0.46664167  0.31407851  0.79941225     0.07600
C115        C  0.46247525  0.33157612  0.70860403    -0.11500
C116        C  0.46164521  0.35120187  0.67765382    -0.10800
C117        C  0.48769363  0.37109957  0.65439443    -0.01700
C118        C  0.01477383  0.37178703  0.66414784    -0.11900
C119        C  0.01548735  0.35200084  0.69460350    -0.10300
H120        H  0.44194233  0.31575346  0.72500197     0.07600
H121        H  0.44049280  0.35032544  0.67125581     0.11300
H122        H  0.03532463  0.38697562  0.64722165     0.11100
H123        H  0.03648892  0.35244361  0.70048913     0.07600
C124        C  0.97644079  0.13836680  0.37820547    -0.11500
C125        C  0.48758018  0.12080617  0.35979910     0.05700
C126        C  0.49719789  0.12583555  0.31601026    -0.10300
C127        C  0.49633665  0.14846903  0.29162678    -0.11900
C128        C  0.48594699  0.16653125  0.31066795    -0.01700
C129        C  0.97578572  0.16098990  0.35409774    -0.10800
C130        C  0.48951622  0.09793516  0.38713181     0.05700
H131        H  0.50603405  0.11278389  0.30098976     0.07600
H132        H  0.50439413  0.15224062  0.25822843     0.11100
H133        H  0.96724234  0.17415263  0.36960715     0.11300
H134        H  0.96814666  0.13460029  0.41147892     0.07600
C135        C  0.99833047  0.10444601  0.43110544    -0.11500
C136        C  0.99754098  0.08255940  0.45861859    -0.10800
C137        C  0.48829125  0.05356751  0.44290596    -0.01700
C138        C  0.48090260  0.04726917  0.39839722    -0.11900
C139        C  0.48143846  0.06929477  0.37070148    -0.10300
H140        H  0.00554807  0.12650655  0.44450289     0.07600
H141        H  0.00403549  0.08835695  0.49252077     0.11300
H142        H  0.47388444  0.02515562  0.38538947     0.11100
H143        H  0.47455953  0.06362260  0.33692232     0.07600
C144        C  0.46548144  0.27530213  0.37528877    -0.11500
C145        C  0.48094763  0.30532567  0.36158069     0.05700
C146        C  0.99668653  0.31249335  0.32178083    -0.10300
C147        C  0.99716252  0.29002237  0.29643368    -0.11900
C148        C  0.48251517  0.26017537  0.31104341    -0.01700
C149        C  0.46647968  0.25302675  0.35050424    -0.10800
C150        C  0.48167978  0.32896543  0.39022238     0.05700
H151        H  0.00868915  0.33546360  0.31044276     0.07600
H152        H  0.00972901  0.29610570  0.26613674     0.11100
H153        H  0.45481144  0.23016717  0.36235766     0.11300
H154        H  0.45339610  0.26918660  0.40600203     0.07600
C155        C  0.45529385  0.32465702  0.41038428    -0.11500
C156        C  0.45637748  0.34497037  0.44166215    -0.10800
C157        C  0.48395597  0.36993889  0.45389335    -0.01700
C158        C  0.01020675  0.37501815  0.43215712    -0.11900
C159        C  0.00904489  0.35476456  0.40049796    -0.10300
H160        H  0.43385643  0.30516756  0.40257976     0.07600
H161        H  0.43564081  0.34055067  0.45721170     0.11300
H162        H  0.03175812  0.39420899  0.44039036     0.11100
H163        H  0.02973054  0.35855651  0.38549446     0.07600
C164        C  0.97532897  0.23031956  0.00636607    -0.11500
C165        C  0.48764238  0.21550748  0.02990441     0.05700
C166        C  0.49956257  0.20031282  0.00652774    -0.10300
C167        C  0.49910644  0.19981065  0.96092573    -0.11900
C168        C  0.48715008  0.21488020  0.93742162    -0.01700
C169        C  0.97527168  0.23017674  0.96056579    -0.10800
C170        C  0.48822439  0.21586315  0.07857513     0.05700
H171        H  0.50979098  0.18920064  0.02343343     0.07600
H172        H  0.50878205  0.18812397  0.94406049     0.11100
H173        H  0.96573543  0.24182239  0.94328886     0.11300
H174        H  0.96549255  0.24181167  0.02331082     0.07600
C175        C  0.99339813  0.24153090  0.10205825    -0.11500
C176        C  0.99397401  0.24173539  0.14780289    -0.10800
C177        C  0.48960748  0.21634822  0.17111568    -0.01700
C178        C  0.48478153  0.19082944  0.14763683    -0.11900
C179        C  0.48391732  0.19052713  0.10199282    -0.10300
H180        H  0.99734180  0.26161706  0.08510748     0.07600
H181        H  0.99788964  0.26182403  0.16487502     0.11300
H182        H  0.48107094  0.17078749  0.16450489     0.11100
H183        H  0.47935417  0.17018256  0.08508780     0.07600
C184        C  0.32141797  0.98718570  0.78636252    -0.11500
C185        C  0.31553219  0.47690112  0.74292868     0.05700
C186        C  0.28672355  0.46634640  0.72558899    -0.10300
C187        C  0.26405435  0.46581117  0.75116035    -0.11900
C188        C  0.26953266  0.47548387  0.79495305    -0.01700
C189        C  0.29847963  0.98620988  0.81237324    -0.10800
C190        C  0.33890263  0.47654955  0.71525245     0.05700
H191        H  0.28179338  0.45859958  0.69201571     0.07600
H192        H  0.24206921  0.45743124  0.73663016     0.11100
H193        H  0.30341992  0.99398597  0.84591016     0.11300
H194        H  0.34354756  0.99541432  0.80030268     0.07600
C195        C  0.36646073  0.50277486  0.70810087    -0.11500
C196        C  0.38681256  0.50290985  0.67751738    -0.10800
C197        C  0.38002065  0.47668640  0.65410490    -0.01700
C198        C  0.35305264  0.45014650  0.66315766    -0.11900
C199        C  0.33264652  0.45015965  0.69314164    -0.10300
H200        H  0.37165755  0.02338832  0.72480013     0.07600
H201        H  0.40753191  0.02364398  0.67155423     0.11300
H202        H  0.34716480  0.42951665  0.64595847     0.11100
H203        H  0.31160257  0.42962920  0.69848387     0.07600
C204        C  0.12967007  0.97798649  0.79490254    -0.11500
C205        C  0.12425012  0.46731859  0.75156839     0.05700
C206        C  0.14098293  0.45487851  0.73436970    -0.10300
C207        C  0.16392139  0.45492268  0.75867778    -0.11900
C208        C  0.17041665  0.46694957  0.80111468    -0.01700
C209        C  0.15251344  0.97767635  0.81957654    -0.10800
C210        C  0.10275959  0.47071091  0.72298448     0.05700
H211        H  0.13675568  0.44563618  0.70158561     0.07600
H212        H  0.17693157  0.44593975  0.74390152     0.11100
H213        H  0.15702315  0.98702491  0.85230199     0.11300
H214        H  0.11717433  0.98773425  0.80903078     0.07600
C215        C  0.07481609  0.46556313  0.73854580    -0.11500
C216        C  0.05455862  0.46786784  0.71024556    -0.10800
C217        C  0.06196929  0.47527906  0.66602183    -0.01700
C218        C  0.09020416  0.48120759  0.65100167    -0.11900
C219        C  0.11035238  0.47911172  0.67911194    -0.10300
H220        H  0.06834893  0.45904794  0.77220293     0.07600
H221        H  0.03290809  0.46317508  0.72262949     0.11300
H222        H  0.09675694  0.48738947  0.61725479     0.11100
H223        H  0.13201493  0.48411650  0.66636810     0.07600
C224        C  0.30991338  0.46489769  0.32393659    -0.11500
C225        C  0.31680557  0.47828742  0.36556809     0.05700
C226        C  0.30096692  0.49202444  0.38125893    -0.10300
C227        C  0.27861993  0.49240177  0.35595918    -0.11900
C228        C  0.27184629  0.47939813  0.31406747    -0.01700
C229        C  0.28779323  0.46573673  0.29812914    -0.10800
C230        C  0.34025278  0.47806295  0.39331018     0.05700
H231        H  0.30566836  0.50219623  0.41346918     0.07600
H232        H  0.26680585  0.50315985  0.36914222     0.11100
H233        H  0.28289877  0.95539408  0.26604746     0.11300
H234        H  0.32189343  0.95417698  0.31125117     0.07600
C235        C  0.33979099  0.45115254  0.40269626    -0.11500
C236        C  0.35968330  0.45066541  0.43355824    -0.10800
C237        C  0.38053035  0.47716903  0.45515501    -0.01700
C238        C  0.38194739  0.50429145  0.44375245    -0.11900
C239        C  0.36191219  0.50468053  0.41338183    -0.10300
H240        H  0.32321010  0.43034706  0.38760713     0.07600
H241        H  0.35823644  0.42945591  0.44126599     0.11300
H242        H  0.39789115  0.52516451  0.45936198     0.11100
H243        H  0.36287906  0.52574626  0.40621891     0.07600
C244        C  0.16337653  0.49909802  0.37579649    -0.11500
C245        C  0.13423047  0.48678327  0.35845140     0.05700
C246        C  0.12911127  0.47634578  0.31499276    -0.10300
C247        C  0.15231866  0.47682309  0.29031036    -0.11900
C248        C  0.18092156  0.48746150  0.30883876    -0.01700
C249        C  0.18633923  0.49919658  0.35146106    -0.10800
C250        C  0.10921258  0.48330431  0.38686531     0.05700
H251        H  0.10691460  0.46664699  0.30070717     0.07600
H252        H  0.14752597  0.46765911  0.25747608     0.11100
H253        H  0.20829134  0.00806985  0.36634908     0.11300
H254        H  0.16834897  0.00818566  0.40866625     0.07600
C255        C  0.10846221  0.47525567  0.43091672    -0.11500
C256        C  0.08587349  0.47274411  0.45863385    -0.10800
C257        C  0.06312741  0.47787779  0.44307745    -0.01700
C258        C  0.06315360  0.48505663  0.39874574    -0.11900
C259        C  0.08606504  0.48779456  0.37083827    -0.10300
H260        H  0.12535853  0.97073954  0.44410219     0.07600
H261        H  0.08631053  0.96683030  0.49251038     0.11300
H262        H  0.04591345  0.48920361  0.38595250     0.11100
H263        H  0.08604455  0.49407627  0.33706927     0.07600
C264        C  0.21132878  0.48936471  0.10176569    -0.11500
C265        C  0.22628801  0.47682802  0.07927227     0.05700
C266        C  0.24128918  0.46507444  0.10354609    -0.10300
C267        C  0.24116510  0.46574352  0.14932336    -0.11900
C268        C  0.22582089  0.47794138  0.17165561    -0.01700
C269        C  0.21094133  0.48974719  0.14736164    -0.10800
C270        C  0.22576997  0.47581177  0.03070385     0.05700
H271        H  0.25271748  0.45494896  0.08717658     0.07600
H272        H  0.25274879  0.45638565  0.16722028     0.11100
H273        H  0.19930881  0.99971851  0.16358903     0.11300
H274        H  0.20011072  0.99918999  0.08408204     0.07600
C275        C  0.19949903  0.46950696  0.00796073    -0.11500
C276        C  0.19890729  0.46927706  0.96236744    -0.10800
C277        C  0.22452192  0.47513356  0.93822416    -0.01700
C278        C  0.25077021  0.48111644  0.96088814    -0.11900
C279        C  0.25139337  0.48148315  0.00667986    -0.10300
H280        H  0.17920000  0.46444922  0.02545055     0.07600
H281        H  0.17819504  0.46426251  0.94609061     0.11300
H282        H  0.27090449  0.48573423  0.94329596     0.11100
H283        H  0.27206904  0.48671025  0.02325802     0.07600
C284        C  0.36435992  0.35404747  0.68030394    -0.11500
C285        C  0.36493561  0.36089473  0.72490297     0.05700
C286        C  0.38885891  0.38802974  0.74082746    -0.10300
C287        C  0.41114262  0.40825917  0.71222835    -0.11900
C288        C  0.40979978  0.40160290  0.66735710    -0.01700
C289        C  0.38634912  0.37411590  0.65196699    -0.10800
C290        C  0.34031830  0.33938819  0.75377859     0.05700
H291        H  0.38993929  0.39389745  0.77506959     0.07600
H292        H  0.42901928  0.42926682  0.72499350     0.11100
H293        H  0.38485176  0.36806928  0.61772321     0.11300
H294        H  0.34681573  0.33298729  0.66715005     0.07600
C295        C  0.31069484  0.32401315  0.73784045    -0.11500
C296        C  0.28792237  0.30076243  0.76172199    -0.10800
C297        C  0.29402058  0.29261772  0.80257380    -0.01700
C298        C  0.32316038  0.30923219  0.82006468    -0.11900
C299        C  0.34618446  0.33236281  0.79575489    -0.10300
H300        H  0.30522305  0.32949636  0.70622536     0.07600
H301        H  0.26555440  0.28881679  0.74783162     0.11300
H302        H  0.32844582  0.30348077  0.85161659     0.11100
H303        H  0.36876079  0.34378339  0.80892630     0.07600
C304        C  0.13353126  0.09958898  0.70545943    -0.11500
C305        C  0.13326815  0.12629063  0.71392080     0.05700
C306        C  0.11199678  0.13132267  0.69260941    -0.10300
C307        C  0.09194043  0.11051810  0.66248930    -0.11900
C308        C  0.09297092  0.08434735  0.65242968    -0.01700
C309        C  0.11369570  0.07888209  0.67480309    -0.10800
C310        C  0.15629185  0.14977898  0.74264222     0.05700
H311        H  0.11116190  0.15160874  0.69889608     0.07600
H312        H  0.07616422  0.11540594  0.64618757     0.11100
H313        H  0.11495871  0.05887758  0.66807233     0.11300
H314        H  0.14982904  0.09528072  0.72136764     0.07600
C315        C  0.16247471  0.14286103  0.78445048    -0.11500
C316        C  0.18469174  0.16529845  0.81084156    -0.10800
C317        C  0.20152759  0.19489198  0.79544511    -0.01700
C318        C  0.19522813  0.20165301  0.75357926    -0.11900
C319        C  0.17273971  0.17942818  0.72766828    -0.10300
H320        H  0.14999178  0.12015165  0.79673687     0.07600
H321        H  0.18907438  0.15938901  0.84289367     0.11300
H322        H  0.20766134  0.22422558  0.74077112     0.11100
H323        H  0.16858547  0.18529457  0.69542673     0.07600
C324        C  0.35856632  0.35729162  0.43355875    -0.11500
C325        C  0.36518129  0.35480374  0.38970651     0.05700
C326        C  0.39364792  0.37572434  0.37320306    -0.10300
C327        C  0.41524340  0.39805137  0.40048438    -0.11900
C328        C  0.40873941  0.39962122  0.44470101    -0.01700
C329        C  0.38007738  0.37920966  0.46069928    -0.10800
C330        C  0.34235214  0.33001617  0.36216011     0.05700
H331        H  0.39949400  0.37435719  0.33959986     0.07600
H332        H  0.43718581  0.41352877  0.38736671     0.11100
H333        H  0.37420213  0.38013405  0.49447014     0.11300
H334        H  0.33664115  0.34222002  0.44708434     0.07600
C335        C  0.32374658  0.30166233  0.38073026    -0.11500
C336        C  0.30087285  0.27873817  0.35633720    -0.10800
C337        C  0.29622321  0.28333525  0.31244104    -0.01700
C338        C  0.31542614  0.31130309  0.29321376    -0.11900
C339        C  0.33820910  0.33447303  0.31789534    -0.10300
H340        H  0.32679683  0.29713175  0.41434716     0.07600
H341        H  0.28678925  0.25734454  0.37200054     0.11300
H342        H  0.31235756  0.31553742  0.25945123     0.11100
H343        H  0.35199695  0.35608258  0.30267454     0.07600
C344        C  0.10575118  0.12126397  0.40099807    -0.11500
C345        C  0.13078229  0.11896508  0.38845499     0.05700
C346        C  0.13460415  0.09587321  0.40581560    -0.10300
C347        C  0.11474962  0.07647213  0.43714368    -0.11900
C348        C  0.09083165  0.07999808  0.45207629    -0.01700
C349        C  0.08595427  0.10198027  0.43264844    -0.10800
C350        C  0.15452012  0.14233711  0.36099977     0.05700
H351        H  0.15353413  0.09343677  0.39605959     0.07600
H352        H  0.11881417  0.05940776  0.45076050     0.11100
H353        H  0.06746578  0.10498527  0.44294311     0.11300
H354        H  0.10239350  0.13894000  0.38802471     0.07600
C355        C  0.14760154  0.15189493  0.32190972    -0.11500
C356        C  0.17043716  0.17482575  0.29725303    -0.10800
C357        C  0.20030986  0.18897002  0.31203372    -0.01700
C358        C  0.20708873  0.17941666  0.35117309    -0.11900
C359        C  0.18446671  0.15615960  0.37519290    -0.10300
H360        H  0.12461429  0.14156217  0.31047191     0.07600
H361        H  0.16469969  0.18197203  0.26724564     0.11300
H362        H  0.22996433  0.18988368  0.36314985     0.11100
H363        H  0.19027638  0.14942874  0.40553093     0.07600
C364        C  0.26470472  0.26329378  0.00844993    -0.11500
C365        C  0.24806514  0.23615503  0.03110950     0.05700
C366        C  0.23194766  0.20948704  0.00679873    -0.10300
C367        C  0.23233341  0.21008344  0.96096739    -0.11900
C368        C  0.24914554  0.23730122  0.93855763    -0.01700
C369        C  0.26544038  0.26382149  0.96287548    -0.10800
C370        C  0.24756953  0.23601470  0.07981996     0.05700
H371        H  0.21924148  0.18811832  0.02313883     0.07600
H372        H  0.21964646  0.18925522  0.94310539     0.11100
H373        H  0.27830496  0.28523908  0.94668428     0.11300
H374        H  0.27679989  0.28436025  0.02588957     0.07600
C375        C  0.27328060  0.25611063  0.10365457    -0.11500
C376        C  0.27274548  0.25688860  0.14925733    -0.10800
C377        C  0.24661477  0.23729187  0.17234434    -0.01700
C378        C  0.22094435  0.21694640  0.14868289    -0.11900
C379        C  0.22137876  0.21639597  0.10293535    -0.10300
H380        H  0.29405486  0.27110719  0.08710807     0.07600
H381        H  0.29303068  0.27260167  0.16640937     0.11300
H382        H  0.20041234  0.20155538  0.16547001     0.11100
H383        H  0.20103286  0.20093775  0.08570889     0.07600
C384        C  0.22447314  0.71398793  0.28755122     0.79600
N385        N  0.22368511  0.71482415  0.24322174    -0.78700
C386        C  0.24656596  0.73750341  0.22080420     0.82000
N387        N  0.27003288  0.75971660  0.24327924    -0.78700
C388        C  0.27091319  0.75916618  0.28766469     0.82100
N389        N  0.24818060  0.73606556  0.30945436    -0.80400
C390        C  0.22598323  0.71871517  0.82202847     0.79600
N391        N  0.22689314  0.71621326  0.86625533    -0.78700
C392        C  0.24921564  0.73863593  0.89016029     0.82000
N393        N  0.27093090  0.76330922  0.86939247    -0.78700
C394        C  0.27029298  0.76597305  0.82535085     0.82100
N395        N  0.24764836  0.74372087  0.80202135    -0.80400
C396        C  0.24796885  0.98003061  0.28790518     0.79600
N397        N  0.22664611  0.98376616  0.30836717    -0.78700
C398        C  0.20459580  0.98473605  0.28535103     0.82000
N399        N  0.20421937  0.98238638  0.24110887    -0.78700
C400        C  0.22562924  0.97896627  0.21999049     0.82100
N401        N  0.24732011  0.97750520  0.24360421    -0.80400
C402        C  0.24490976  0.97435227  0.82154270     0.79600
N403        N  0.24658214  0.97609318  0.86594527    -0.78700
C404        C  0.22342816  0.97449008  0.88976061     0.82000
N405        N  0.19875163  0.97154385  0.86869772    -0.78700
C406        C  0.19688063  0.96973505  0.82444255     0.82100
N407        N  0.21994816  0.97101815  0.80125743    -0.80400
C408        C  0.48468368  0.73661801  0.28636620     0.79600
N409        N  0.48395173  0.71327767  0.30805994    -0.78700
C410        C  0.48615604  0.69147728  0.28616323     0.82000
N411        N  0.48852932  0.69290715  0.24187727    -0.78700
C412        C  0.48890782  0.71596164  0.21958205     0.82100
N413        N  0.48728471  0.73792952  0.24211241    -0.80400
C414        C  0.49006336  0.73830952  0.82160941     0.79600
N415        N  0.48713198  0.73722336  0.86591665    -0.78700
C416        C  0.48797985  0.71506276  0.88906330     0.82000
N417        N  0.49119802  0.69371634  0.86751485    -0.78700
C418        C  0.49400065  0.69454579  0.82339736     0.82100
N419        N  0.49366381  0.71700018  0.80077280    -0.80400
O420        O  0.41965490  0.50147538  0.50684518    -0.88800
C421        C  0.07342158  0.56381857  0.61740377     1.11200
O422        O  0.45500409  0.97654479  0.55473635    -1.36600
O423        O  0.05172232  0.56673809  0.50328443    -0.90300
O424        O  0.39506019  0.95139885  0.50494565    -0.91000
O425        O  0.45466920  0.94452657  0.46258714    -0.79800
O426        O  0.48604894  0.53481481  0.51314559    -1.01900
C427        C  0.04057082  0.97676127  0.47416702     1.21300
O428        O  0.48608249  0.94519766  0.55476985    -1.36800
Mn429      Mn  0.48638953  0.97668898  0.60207615     1.82100
O430        O  0.01710753  0.97639041  0.46203783    -0.78900
O431        O  0.07750367  0.54240848  0.50572755    -0.88300
C432        C  0.04047451  0.97596549  0.63460530     1.12300
C433        C  0.07208972  0.56183280  0.48907772     1.07100
O434        O  0.45527209  0.94623021  0.64735022    -0.79800
O435        O  0.01745840  0.50757607  0.55425516    -1.33500
O436        O  0.42735851  0.91822183  0.59658768    -0.99000
C437        C  0.48521057  0.88964581  0.49031775     1.05800
Mn438      Mn  0.05986088  0.50995693  0.55477841     1.48600
O439        O  0.46057740  0.88462510  0.50735062    -0.88200
Mn440      Mn  0.41255560  0.93672567  0.55476972     1.49600
O441        O  0.42074223  0.50215938  0.60493893    -0.92100
C442        C  0.48612949  0.53052438  0.47394614     1.19000
C443        C  0.39990291  0.97705405  0.61878098     1.11000
Mn444      Mn  0.48591022  0.97614530  0.50696395     1.81000
O445        O  0.04502290  0.97612835  0.59544455    -0.94100
Mn446      Mn  0.45283770  0.51658477  0.55502510     1.49300
C447        C  0.39970126  0.97659301  0.49089980     1.07600
Mn448      Mn  0.02603469  0.94266533  0.55369024     1.49900
C449        C  0.48664713  0.89009287  0.61876008     1.10500
O450        O  0.42737734  0.91763582  0.51449361    -1.03000
O451        O  0.07772835  0.54277896  0.60421868    -0.92700
C452        C  0.43139301  0.92154402  0.47522933     1.21700
O453        O  0.04476971  0.97650128  0.51334950    -1.03400
O454        O  0.05343152  0.56860050  0.60115672    -0.90800
O455        O  0.01134636  0.90969178  0.60198729    -0.90400
O456        O  0.39473015  0.95208595  0.60287394    -0.90500
Mn457      Mn  0.02002177  0.55000901  0.55332371     1.47900
O458        O  0.01732047  0.97622506  0.64659923    -0.78900
C459        C  0.43185084  0.92298865  0.63570550     1.14800
O460        O  0.48543641  0.50692185  0.46183895    -0.77700
O461        O  0.48728002  0.50833973  0.64665387    -0.77300
Mn462      Mn  0.44606509  0.90294283  0.55600388     1.51100
O463        O  0.01066510  0.91034007  0.50368701    -0.89600
O464        O  0.48703146  0.53559735  0.59519020    -0.97200
O465        O  0.46125756  0.88568928  0.60564774    -0.92200
C466        C  0.48776682  0.53176736  0.63435862     1.12600
C467        C  0.51264630  0.65516230  0.73514760    -0.11500
C468        C  0.49837769  0.62546458  0.75048745     0.05700
C469        C  0.48485385  0.61922105  0.79201168    -0.10300
C470        C  0.48439683  0.64194418  0.81664115    -0.11900
C471        C  0.49708950  0.67116611  0.79989083    -0.01700
C472        C  0.51170883  0.67765933  0.75932710    -0.10800
C473        C  0.49575145  0.60100879  0.72162456     0.05700
H474        H  0.47350425  0.59657584  0.80465108     0.07600
H475        H  0.47298037  0.63637413  0.84789190     0.11100
H476        H  0.52217691  0.70012733  0.74603376     0.11300
H477        H  0.52404435  0.66093599  0.70389202     0.07600
C478        C  0.49074311  0.60198423  0.67665907    -0.11500
C479        C  0.48796989  0.57933890  0.64887195    -0.10800
C480        C  0.48985461  0.55485402  0.66521089    -0.01700
C481        C  0.49447202  0.55345136  0.71023966    -0.11900
C482        C  0.49741302  0.57638133  0.73826143    -0.10300
H483        H  0.48850439  0.62011995  0.66283584     0.07600
H484        H  0.48425052  0.58103899  0.61436859     0.11300
H485        H  0.99613742  0.53487917  0.72364832     0.11100
H486        H  0.00138223  0.57504919  0.77274901     0.07600
C487        C  0.47677197  0.80162204  0.78641568    -0.11500
C488        C  0.48958293  0.80797455  0.74442699     0.05700
C489        C  0.00259258  0.79151279  0.72846347    -0.10300
C490        C  0.00267900  0.76903022  0.75367517    -0.11900
C491        C  0.49007549  0.76264895  0.79578867    -0.01700
C492        C  0.47729725  0.77932852  0.81211437    -0.10800
C493        C  0.48925865  0.83129061  0.71645336     0.05700
H494        H  0.01230830  0.79573320  0.69601720     0.07600
H495        H  0.01279477  0.75670450  0.74013296     0.11100
H496        H  0.46731679  0.77482742  0.84438038     0.11300
H497        H  0.46664176  0.81407862  0.79941231     0.07600
C498        C  0.46247529  0.83157617  0.70860404    -0.11500
C499        C  0.46164518  0.85120190  0.67765385    -0.10800
C500        C  0.48769363  0.87109957  0.65439442    -0.01700
C501        C  0.01477385  0.87178701  0.66414776    -0.11900
C502        C  0.01548730  0.85200078  0.69460344    -0.10300
H503        H  0.44194241  0.81575356  0.72500199     0.07600
H504        H  0.44049275  0.85032550  0.67125586     0.11300
H505        H  0.03532466  0.88697559  0.64722151     0.11100
H506        H  0.03648884  0.85244353  0.70048901     0.07600
C507        C  0.97644078  0.63836677  0.37820543    -0.11500
C508        C  0.48758014  0.62080615  0.35979910     0.05700
C509        C  0.49719789  0.62583555  0.31601028    -0.10300
C510        C  0.49633669  0.64846904  0.29162680    -0.11900
C511        C  0.48594703  0.66653127  0.31066796    -0.01700
C512        C  0.97578571  0.66098988  0.35409774    -0.10800
C513        C  0.48951617  0.59793513  0.38713183     0.05700
H514        H  0.50603405  0.61278390  0.30098980     0.07600
H515        H  0.50439420  0.65224064  0.25822847     0.11100
H516        H  0.96724233  0.67415262  0.36960714     0.11300
H517        H  0.96814665  0.63460026  0.41147887     0.07600
C518        C  0.99833047  0.60444599  0.43110541    -0.11500
C519        C  0.99754099  0.58255940  0.45861857    -0.10800
C520        C  0.48829121  0.55356750  0.44290598    -0.01700
C521        C  0.48090257  0.54726916  0.39839725    -0.11900
C522        C  0.48143841  0.56929474  0.37070148    -0.10300
H523        H  0.00554807  0.62650654  0.44450287     0.07600
H524        H  0.00403551  0.58835695  0.49252075     0.11300
H525        H  0.47388442  0.52515563  0.38538951     0.11100
H526        H  0.47455948  0.56362256  0.33692230     0.07600
C527        C  0.46548151  0.77530216  0.37528875    -0.11500
C528        C  0.48094762  0.80532569  0.36158068     0.05700
C529        C  0.99668647  0.81249332  0.32178081    -0.10300
C530        C  0.99716252  0.79002238  0.29643362    -0.11900
C531        C  0.48251523  0.76017540  0.31104342    -0.01700
C532        C  0.46647974  0.75302674  0.35050429    -0.10800
C533        C  0.48167975  0.82896544  0.39022237     0.05700
H534        H  0.00868907  0.83546354  0.31044270     0.07600
H535        H  0.00972900  0.79610569  0.26613665     0.11100
H536        H  0.45481153  0.73016714  0.36235774     0.11300
H537        H  0.45339619  0.76918663  0.40600200     0.07600
C538        C  0.45529378  0.82465697  0.41038429    -0.11500
C539        C  0.45637750  0.84497036  0.44166215    -0.10800
C540        C  0.48395593  0.86993888  0.45389335    -0.01700
C541        C  0.01020666  0.87501812  0.43215704    -0.11900
C542        C  0.00904489  0.85476459  0.40049786    -0.10300
H543        H  0.43385636  0.80516748  0.40257977     0.07600
H544        H  0.43564084  0.84055062  0.45721167     0.11300
H545        H  0.03175799  0.89420892  0.44039024     0.11100
H546        H  0.02973058  0.85855655  0.38549431     0.07600
C547        C  0.97532898  0.73031957  0.00636610    -0.11500
C548        C  0.48764235  0.71550746  0.02990441     0.05700
C549        C  0.49956257  0.70031283  0.00652774    -0.10300
C550        C  0.49910644  0.69981068  0.96092573    -0.11900
C551        C  0.48715007  0.71488021  0.93742161    -0.01700
C552        C  0.97527169  0.73017677  0.96056579    -0.10800
C553        C  0.48822437  0.71586315  0.07857514     0.05700
H554        H  0.50979100  0.68920068  0.02343344     0.07600
H555        H  0.50878208  0.68812402  0.94406049     0.11100
H556        H  0.96573542  0.74182242  0.94328885     0.11300
H557        H  0.96549257  0.74181168  0.02331087     0.07600
C558        C  0.99339817  0.74153095  0.10205825    -0.11500
C559        C  0.99397406  0.74173537  0.14780289    -0.10800
C560        C  0.48960752  0.71634824  0.17111570    -0.01700
C561        C  0.48478160  0.69082948  0.14763684    -0.11900
C562        C  0.48391735  0.69052713  0.10199283    -0.10300
H563        H  0.99734184  0.76161713  0.08510743     0.07600
H564        H  0.99788968  0.76182399  0.16487499     0.11300
H565        H  0.48107105  0.67078755  0.16450487     0.11100
H566        H  0.47935422  0.67018256  0.08508780     0.07600
C567        C  0.32141795  0.48718571  0.78636252    -0.11500
C568        C  0.31553215  0.97690109  0.74292865     0.05700
C569        C  0.28672350  0.96634636  0.72558894    -0.10300
C570        C  0.26405433  0.96581117  0.75116036    -0.11900
C571        C  0.26953265  0.97548387  0.79495305    -0.01700
C572        C  0.29847965  0.48620990  0.81237330    -0.10800
C573        C  0.33890259  0.97654953  0.71525239     0.05700
H574        H  0.28179334  0.95859954  0.69201562     0.07600
H575        H  0.24206921  0.95743124  0.73663017     0.11100
H576        H  0.30341994  0.49398600  0.84591026     0.11300
H577        H  0.34354750  0.49541432  0.80030268     0.07600
C578        C  0.36646071  0.00277482  0.70810087    -0.11500
C579        C  0.38681256  0.00290984  0.67751738    -0.10800
C580        C  0.38002062  0.97668640  0.65410483    -0.01700
C581        C  0.35305259  0.95014651  0.66315751    -0.11900
C582        C  0.33264645  0.95015964  0.69314150    -0.10300
H583        H  0.37165755  0.52338838  0.72480006     0.07600
H584        H  0.40753187  0.52364398  0.67155417     0.11300
H585        H  0.34716473  0.92951670  0.64595826     0.11100
H586        H  0.31160248  0.92962919  0.69848367     0.07600
C587        C  0.12967013  0.47798655  0.79490247    -0.11500
C588        C  0.12425011  0.96731858  0.75156839     0.05700
C589        C  0.14098296  0.95487855  0.73436966    -0.10300
C590        C  0.16392142  0.95492274  0.75867777    -0.11900
C591        C  0.17041665  0.96694956  0.80111470    -0.01700
C592        C  0.15251349  0.47767643  0.81957652    -0.10800
C593        C  0.10275958  0.97071091  0.72298446     0.05700
H594        H  0.13675574  0.94563627  0.70158553     0.07600
H595        H  0.17693163  0.94593985  0.74390147     0.11100
H596        H  0.15702324  0.48702504  0.85230197     0.11300
H597        H  0.11717445  0.48773435  0.80903069     0.07600
C598        C  0.07481606  0.96556309  0.73854581    -0.11500
C599        C  0.05455862  0.96786783  0.71024551    -0.10800
C600        C  0.06196928  0.97527906  0.66602180    -0.01700
C601        C  0.09020415  0.98120762  0.65100172    -0.11900
C602        C  0.11035242  0.97911176  0.67911191    -0.10300
H603        H  0.06834889  0.95904788  0.77220295     0.07600
H604        H  0.03290810  0.96317504  0.72262943     0.11300
H605        H  0.09675695  0.98738952  0.61725489     0.11100
H606        H  0.13201500  0.98411658  0.66636810     0.07600
C607        C  0.30991338  0.96489765  0.32393657    -0.11500
C608        C  0.31680554  0.97828736  0.36556809     0.05700
C609        C  0.30096687  0.99202435  0.38125897    -0.10300
C610        C  0.27861988  0.99240167  0.35595922    -0.11900
C611        C  0.27184626  0.97939807  0.31406749    -0.01700
C612        C  0.28779321  0.96573671  0.29812915    -0.10800
C613        C  0.34025277  0.97806291  0.39331014     0.05700
H614        H  0.30566830  0.00219612  0.41346924     0.07600
H615        H  0.26680579  0.00315973  0.36914229     0.11100
H616        H  0.28289876  0.45539407  0.26604745     0.11300
H617        H  0.32189341  0.45417700  0.31125123     0.07600
C618        C  0.33979100  0.95115251  0.40269621    -0.11500
C619        C  0.35968333  0.95066536  0.43355820    -0.10800
C620        C  0.38053036  0.97716901  0.45515497    -0.01700
C621        C  0.38194740  0.00429145  0.44375242    -0.11900
C622        C  0.36191217  0.00468048  0.41338180    -0.10300
H623        H  0.32321013  0.93034704  0.38760708     0.07600
H624        H  0.35823649  0.92945586  0.44126596     0.11300
H625        H  0.39789116  0.02516452  0.45936197     0.11100
H626        H  0.36287902  0.02574620  0.40621889     0.07600
C627        C  0.16337648  0.99909797  0.37579642    -0.11500
C628        C  0.13423043  0.98678319  0.35845133     0.05700
C629        C  0.12911122  0.97634569  0.31499269    -0.10300
C630        C  0.15231864  0.97682303  0.29031035    -0.11900
C631        C  0.18092154  0.98746145  0.30883871    -0.01700
C632        C  0.18633919  0.99919654  0.35146100    -0.10800
C633        C  0.10921253  0.98330423  0.38686524     0.05700
H634        H  0.10691454  0.96664686  0.30070708     0.07600
H635        H  0.14752596  0.96765905  0.25747611     0.11100
H636        H  0.20829139  0.50806986  0.36634912     0.11300
H637        H  0.16834903  0.50818571  0.40866633     0.07600
C638        C  0.10846214  0.97525561  0.43091664    -0.11500
C639        C  0.08587346  0.97274406  0.45863382    -0.10800
C640        C  0.06312739  0.97787775  0.44307739    -0.01700
C641        C  0.06315354  0.98505657  0.39874566    -0.11900
C642        C  0.08606498  0.98779446  0.37083824    -0.10300
H643        H  0.12535863  0.47073959  0.44410227     0.07600
H644        H  0.08631056  0.46683032  0.49251037     0.11300
H645        H  0.04591338  0.98920354  0.38595242     0.11100
H646        H  0.08604447  0.99407615  0.33706926     0.07600
C647        C  0.21132889  0.98936478  0.10176566    -0.11500
C648        C  0.22628809  0.97682805  0.07927228     0.05700
C649        C  0.24128925  0.96507447  0.10354609    -0.10300
C650        C  0.24116515  0.96574355  0.14932334    -0.11900
C651        C  0.22582096  0.97794142  0.17165559    -0.01700
C652        C  0.21094145  0.98974727  0.14736160    -0.10800
C653        C  0.22577003  0.97581177  0.03070388     0.05700
H654        H  0.25271754  0.95494896  0.08717660     0.07600
H655        H  0.25274882  0.95638567  0.16722026     0.11100
H656        H  0.19930868  0.49971842  0.16358910     0.11300
H657        H  0.20011059  0.49918992  0.08408207     0.07600
C658        C  0.19949912  0.96950690  0.00796074    -0.11500
C659        C  0.19890724  0.96927696  0.96236745    -0.10800
C660        C  0.22452194  0.97513356  0.93822419    -0.01700
C661        C  0.25077032  0.98111652  0.96088810    -0.11900
C662        C  0.25139337  0.98148320  0.00667981    -0.10300
H663        H  0.17920012  0.96444912  0.02545052     0.07600
H664        H  0.17819494  0.96426235  0.94609057     0.11300
H665        H  0.27090464  0.98573438  0.94329583     0.11100
H666        H  0.27206904  0.98671034  0.02325789     0.07600
C667        C  0.36435988  0.85404752  0.68030393    -0.11500
C668        C  0.36493560  0.86089478  0.72490298     0.05700
C669        C  0.38885893  0.88802978  0.74082748    -0.10300
C670        C  0.41114264  0.90825920  0.71222836    -0.11900
C671        C  0.40979978  0.90160293  0.66735709    -0.01700
C672        C  0.38634909  0.87411596  0.65196700    -0.10800
C673        C  0.34031829  0.83938824  0.75377861     0.05700
H674        H  0.38993932  0.89389748  0.77506962     0.07600
H675        H  0.42901933  0.92926684  0.72499351     0.11100
H676        H  0.38485171  0.86806934  0.61772323     0.11300
H677        H  0.34681566  0.83298732  0.66715003     0.07600
C678        C  0.31069483  0.82401320  0.73784046    -0.11500
C679        C  0.28792236  0.80076248  0.76172201    -0.10800
C680        C  0.29402057  0.79261778  0.80257382    -0.01700
C681        C  0.32316037  0.80923226  0.82006471    -0.11900
C682        C  0.34618445  0.83236287  0.79575491    -0.10300
H683        H  0.30522304  0.82949640  0.70622537     0.07600
H684        H  0.26555439  0.78881683  0.74783163     0.11300
H685        H  0.32844581  0.80348085  0.85161663     0.11100
H686        H  0.36876077  0.84378346  0.80892633     0.07600
C687        C  0.13353128  0.59958903  0.70545941    -0.11500
C688        C  0.13326819  0.62629067  0.71392081     0.05700
C689        C  0.11199682  0.63132265  0.69260939    -0.10300
C690        C  0.09194042  0.61051815  0.66248927    -0.11900
C691        C  0.09297095  0.58434737  0.65242971    -0.01700
C692        C  0.11369573  0.57888211  0.67480311    -0.10800
C693        C  0.15629188  0.64977904  0.74264220     0.05700
H694        H  0.11116194  0.65160867  0.69889603     0.07600
H695        H  0.07616417  0.61540598  0.64618751     0.11100
H696        H  0.11495872  0.55887759  0.66807233     0.11300
H697        H  0.14982904  0.59528075  0.72136761     0.07600
C698        C  0.16247473  0.64286105  0.78445048    -0.11500
C699        C  0.18469176  0.66529850  0.81084155    -0.10800
C700        C  0.20152760  0.69489204  0.79544511    -0.01700
C701        C  0.19522813  0.70165304  0.75357927    -0.11900
C702        C  0.17273973  0.67942823  0.72766824    -0.10300
H703        H  0.14999179  0.62015166  0.79673687     0.07600
H704        H  0.18907439  0.65938906  0.84289365     0.11300
H705        H  0.20766133  0.72422560  0.74077113     0.11100
H706        H  0.16858548  0.68529462  0.69542668     0.07600
C707        C  0.35856631  0.85729159  0.43355879    -0.11500
C708        C  0.36518127  0.85480371  0.38970654     0.05700
C709        C  0.39364790  0.87572432  0.37320307    -0.10300
C710        C  0.41524338  0.89805135  0.40048439    -0.11900
C711        C  0.40873941  0.89962120  0.44470102    -0.01700
C712        C  0.38007738  0.87920962  0.46069931    -0.10800
C713        C  0.34235211  0.83001615  0.36216014     0.05700
H714        H  0.39949397  0.87435718  0.33959985     0.07600
H715        H  0.43718578  0.91352876  0.38736671     0.11100
H716        H  0.37420214  0.88013401  0.49447019     0.11300
H717        H  0.33664115  0.84221998  0.44708440     0.07600
C718        C  0.32374656  0.80166231  0.38073029    -0.11500
C719        C  0.30087281  0.77873814  0.35633724    -0.10800
C720        C  0.29622319  0.78333523  0.31244106    -0.01700
C721        C  0.31542611  0.81130306  0.29321379    -0.11900
C722        C  0.33820907  0.83447302  0.31789536    -0.10300
H723        H  0.32679681  0.79713173  0.41434719     0.07600
H724        H  0.28678921  0.75734449  0.37200059     0.11300
H725        H  0.31235752  0.81553739  0.25945127     0.11100
H726        H  0.35199693  0.85608258  0.30267456     0.07600
C727        C  0.10575115  0.62126396  0.40099804    -0.11500
C728        C  0.13078226  0.61896503  0.38845495     0.05700
C729        C  0.13460414  0.59587314  0.40581552    -0.10300
C730        C  0.11474958  0.57647208  0.43714364    -0.11900
C731        C  0.09083163  0.57999804  0.45207630    -0.01700
C732        C  0.08595426  0.60198024  0.43264845    -0.10800
C733        C  0.15452009  0.64233706  0.36099974     0.05700
H734        H  0.15353415  0.59343670  0.39605946     0.07600
H735        H  0.11881412  0.55940772  0.45076044     0.11100
H736        H  0.06746579  0.60498525  0.44294316     0.11300
H737        H  0.10239349  0.63894003  0.38802467     0.07600
C738        C  0.14760150  0.65189488  0.32190966    -0.11500
C739        C  0.17043715  0.67482571  0.29725302    -0.10800
C740        C  0.20030984  0.68896999  0.31203372    -0.01700
C741        C  0.20708870  0.67941663  0.35117310    -0.11900
C742        C  0.18446668  0.65615956  0.37519290    -0.10300
H743        H  0.12461423  0.64156210  0.31047184     0.07600
H744        H  0.16469969  0.68197199  0.26724564     0.11300
H745        H  0.22996429  0.68988366  0.36314989     0.11100
H746        H  0.19027633  0.64942870  0.40553095     0.07600
C747        C  0.26470480  0.76329378  0.00844996    -0.11500
C748        C  0.24806518  0.73615502  0.03110951     0.05700
C749        C  0.23194766  0.70948704  0.00679873    -0.10300
C750        C  0.23233341  0.71008346  0.96096739    -0.11900
C751        C  0.24914557  0.73730124  0.93855764    -0.01700
C752        C  0.26544045  0.76382148  0.96287551    -0.10800
C753        C  0.24756956  0.73601467  0.07981998     0.05700
H754        H  0.21924145  0.68811832  0.02313881     0.07600
H755        H  0.21964642  0.68925526  0.94310539     0.11100
H756        H  0.27830505  0.78523907  0.94668433     0.11300
H757        H  0.27680000  0.78436025  0.02588961     0.07600
C758        C  0.27328063  0.75611060  0.10365460    -0.11500
C759        C  0.27274550  0.75688857  0.14925736    -0.10800
C760        C  0.24661478  0.73729183  0.17234436    -0.01700
C761        C  0.22094436  0.71694636  0.14868291    -0.11900
C762        C  0.22137880  0.71639595  0.10293537    -0.10300
H763        H  0.29405490  0.77110716  0.08710811     0.07600
H764        H  0.29303069  0.77260163  0.16640941     0.11300
H765        H  0.20041234  0.70155533  0.16547002     0.11100
H766        H  0.20103291  0.70093774  0.08570891     0.07600
C767        C  0.72447318  0.21398796  0.28755121     0.79600
N768        N  0.72368514  0.21482419  0.24322173    -0.78700
C769        C  0.74656599  0.23750345  0.22080418     0.82000
N770        N  0.77003292  0.25971663  0.24327924    -0.78700
C771        C  0.77091323  0.25916620  0.28766468     0.82100
N772        N  0.74818064  0.23606557  0.30945435    -0.80400
C773        C  0.72598323  0.21871512  0.82202847     0.79600
N774        N  0.72689313  0.21621323  0.86625533    -0.78700
C775        C  0.74921562  0.23863591  0.89016029     0.82000
N776        N  0.77093089  0.26330919  0.86939245    -0.78700
C777        C  0.77029298  0.26597300  0.82535083     0.82100
N778        N  0.74764836  0.24372081  0.80202133    -0.80400
C779        C  0.74796886  0.48003065  0.28790518     0.79600
N780        N  0.72664613  0.48376620  0.30836717    -0.78700
C781        C  0.70459581  0.48473607  0.28535106     0.82000
N782        N  0.70421934  0.48238637  0.24110891    -0.78700
C783        C  0.72562920  0.47896625  0.21999050     0.82100
N784        N  0.74732009  0.47750520  0.24360421    -0.80400
C785        C  0.74490976  0.47435225  0.82154268     0.79600
N786        N  0.74658214  0.47609317  0.86594525    -0.78700
C787        C  0.72342816  0.47449008  0.88976060     0.82000
N788        N  0.69875164  0.47154385  0.86869770    -0.78700
C789        C  0.69688063  0.46973504  0.82444253     0.82100
N790        N  0.71994816  0.47101814  0.80125742    -0.80400
C791        C  0.98468359  0.23661799  0.28636620     0.79600
N792        N  0.98395165  0.21327765  0.30805994    -0.78700
C793        C  0.98615598  0.19147726  0.28616323     0.82000
N794        N  0.98852928  0.19290714  0.24187729    -0.78700
C795        C  0.98890777  0.21596162  0.21958205     0.82100
N796        N  0.98728464  0.23792951  0.24211241    -0.80400
C797        C  0.99006337  0.23830951  0.82160941     0.79600
N798        N  0.98713199  0.23722333  0.86591665    -0.78700
C799        C  0.98797987  0.21506275  0.88906330     0.82000
N800        N  0.99119805  0.19371634  0.86751484    -0.78700
C801        C  0.99400069  0.19454579  0.82339736     0.82100
N802        N  0.99366384  0.21700017  0.80077280    -0.80400
O803        O  0.91965489  0.00147536  0.50684518    -0.88800
C804        C  0.57342158  0.06381856  0.61740373     1.11200
O805        O  0.95500409  0.47654478  0.55473636    -1.36600
O806        O  0.55172233  0.06673810  0.50328441    -0.90300
O807        O  0.89506019  0.45139884  0.50494567    -0.91000
O808        O  0.95466922  0.44452658  0.46258715    -0.79800
O809        O  0.98604893  0.03481481  0.51314558    -1.01900
C810        C  0.54057084  0.47676128  0.47416705     1.21300
O811        O  0.98608250  0.44519766  0.55476987    -1.36800
Mn812      Mn  0.98638953  0.47668897  0.60207617     1.82100
O813        O  0.51710755  0.47639041  0.46203786    -0.78900
O814        O  0.57750366  0.04240847  0.50572752    -0.88300
C815        C  0.54047451  0.47596549  0.63460533     1.12300
C816        C  0.57208973  0.06183280  0.48907769     1.07100
O817        O  0.95527209  0.44623019  0.64735022    -0.79800
O818        O  0.51745840  0.00757607  0.55425514    -1.33500
O819        O  0.92735852  0.41822181  0.59658769    -0.99000
C820        C  0.98521060  0.38964582  0.49031776     1.05800
Mn821      Mn  0.55986088  0.00995692  0.55477837     1.48600
O822        O  0.96057743  0.38462513  0.50735063    -0.88200
Mn823      Mn  0.91255561  0.43672566  0.55476972     1.49600
O824        O  0.92074222  0.00215936  0.60493893    -0.92100
C825        C  0.98612948  0.03052438  0.47394613     1.19000
C826        C  0.89990293  0.47705404  0.61878101     1.11000
Mn827      Mn  0.98591024  0.47614530  0.50696396     1.81000
O828        O  0.54502290  0.47612835  0.59544458    -0.94100
Mn829      Mn  0.95283769  0.01658476  0.55502510     1.49300
C830        C  0.89970125  0.47659300  0.49089983     1.07600
Mn831      Mn  0.52603470  0.44266533  0.55369027     1.49900
C832        C  0.98664714  0.39009286  0.61876009     1.10500
O833        O  0.92737735  0.41763582  0.51449360    -1.03000
O834        O  0.57772836  0.04277897  0.60421865    -0.92700
C835        C  0.93139304  0.42154403  0.47522933     1.21700
O836        O  0.54476972  0.47650128  0.51334953    -1.03400
O837        O  0.55343152  0.06860049  0.60115668    -0.90800
O838        O  0.51134635  0.40969178  0.60198732    -0.90400
O839        O  0.89473015  0.45208593  0.60287397    -0.90500
Mn840      Mn  0.52002177  0.05000901  0.55332369     1.47900
O841        O  0.51732047  0.47622506  0.64659926    -0.78900
C842        C  0.93185084  0.42298863  0.63570551     1.14800
O843        O  0.98543639  0.00692185  0.46183894    -0.77700
O844        O  0.98728002  0.00833973  0.64665386    -0.77300
Mn845      Mn  0.94606511  0.40294282  0.55600388     1.51100
O846        O  0.51066512  0.41034007  0.50368704    -0.89600
O847        O  0.98703146  0.03559734  0.59519018    -0.97200
O848        O  0.96125758  0.38568927  0.60564773    -0.92200
C849        C  0.98776683  0.03176737  0.63435860     1.12600
C850        C  0.01264646  0.15516235  0.73514764    -0.11500
C851        C  0.99837780  0.12546461  0.75048748     0.05700
C852        C  0.98485390  0.11922106  0.79201167    -0.10300
C853        C  0.98439688  0.14194419  0.81664109    -0.11900
C854        C  0.99708956  0.17116612  0.79989084    -0.01700
C855        C  0.01170895  0.17765935  0.75932716    -0.10800
C856        C  0.99575157  0.10100885  0.72162457     0.05700
H857        H  0.97350427  0.09657582  0.80465105     0.07600
H858        H  0.97298038  0.13637412  0.84789178     0.11100
H859        H  0.02217704  0.20012734  0.74603385     0.11300
H860        H  0.02404456  0.16093606  0.70389207     0.07600
C861        C  0.99074332  0.10198429  0.67665910    -0.11500
C862        C  0.98797005  0.07933900  0.64887188    -0.10800
C863        C  0.98985465  0.05485406  0.66521089    -0.01700
C864        C  0.99447200  0.05345128  0.71023972    -0.11900
C865        C  0.99741302  0.07638134  0.73826135    -0.10300
H866        H  0.98850468  0.12012003  0.66283584     0.07600
H867        H  0.98425075  0.08103911  0.61436847     0.11300
H868        H  0.49613726  0.03487907  0.72364835     0.11100
H869        H  0.50138208  0.07504912  0.77274901     0.07600
C870        C  0.97677195  0.30162199  0.78641566    -0.11500
C871        C  0.98958297  0.30797457  0.74442701     0.05700
C872        C  0.50259271  0.29151287  0.72846354    -0.10300
C873        C  0.50267910  0.26903031  0.75367526    -0.11900
C874        C  0.99007550  0.26264894  0.79578867    -0.01700
C875        C  0.97729721  0.27932848  0.81211440    -0.10800
C876        C  0.98925868  0.33129063  0.71645338     0.05700
H877        H  0.51230851  0.29573336  0.69601728     0.07600
H878        H  0.51279494  0.25670465  0.74013311     0.11100
H879        H  0.96731670  0.27482732  0.84438041     0.11300
H880        H  0.96664171  0.31407853  0.79941227     0.07600
C881        C  0.96247527  0.33157613  0.70860404    -0.11500
C882        C  0.96164522  0.35120188  0.67765383    -0.10800
C883        C  0.98769364  0.37109957  0.65439443    -0.01700
C884        C  0.51477382  0.37178704  0.66414785    -0.11900
C885        C  0.51548734  0.35200084  0.69460351    -0.10300
H886        H  0.94194235  0.31575347  0.72500199     0.07600
H887        H  0.94049281  0.35032544  0.67125583     0.11300
H888        H  0.53532463  0.38697563  0.64722166     0.11100
H889        H  0.53648890  0.35244362  0.70048916     0.07600
C890        C  0.47644079  0.13836677  0.37820543    -0.11500
C891        C  0.98758015  0.12080618  0.35979912     0.05700
C892        C  0.99719785  0.12583554  0.31601026    -0.10300
C893        C  0.99633662  0.14846903  0.29162680    -0.11900
C894        C  0.98594699  0.16653127  0.31066796    -0.01700
C895        C  0.47578570  0.16098987  0.35409773    -0.10800
C896        C  0.98951619  0.09793516  0.38713183     0.05700
H897        H  0.00603400  0.11278387  0.30098976     0.07600
H898        H  0.00439409  0.15224060  0.25822846     0.11100
H899        H  0.46724229  0.17415260  0.36960713     0.11300
H900        H  0.46814665  0.13460025  0.41147888     0.07600
C901        C  0.49833050  0.10444602  0.43110542    -0.11500
C902        C  0.49754101  0.08255941  0.45861857    -0.10800
C903        C  0.98829122  0.05356751  0.44290597    -0.01700
C904        C  0.98090257  0.04726916  0.39839723    -0.11900
C905        C  0.98143842  0.06929477  0.37070150    -0.10300
H906        H  0.50554810  0.12650656  0.44450288     0.07600
H907        H  0.50403551  0.08835696  0.49252075     0.11300
H908        H  0.97388440  0.02515561  0.38538948     0.11100
H909        H  0.97455949  0.06362259  0.33692234     0.07600
C910        C  0.96548145  0.27530215  0.37528880    -0.11500
C911        C  0.98094763  0.30532569  0.36158069     0.05700
C912        C  0.49668656  0.31249335  0.32178084    -0.10300
C913        C  0.49716254  0.29002235  0.29643373    -0.11900
C914        C  0.98251516  0.26017538  0.31104341    -0.01700
C915        C  0.96647968  0.25302675  0.35050426    -0.10800
C916        C  0.98167978  0.32896544  0.39022237     0.05700
H917        H  0.50868921  0.33546361  0.31044277     0.07600
H918        H  0.50972904  0.29610568  0.26613683     0.11100
H919        H  0.95481147  0.23016718  0.36235768     0.11300
H920        H  0.95339612  0.26918661  0.40600208     0.07600
C921        C  0.95529386  0.32465704  0.41038428    -0.11500
C922        C  0.95637747  0.34497038  0.44166216    -0.10800
C923        C  0.98395597  0.36993889  0.45389335    -0.01700
C924        C  0.51020673  0.37501814  0.43215711    -0.11900
C925        C  0.50904491  0.35476457  0.40049794    -0.10300
H926        H  0.93385644  0.30516760  0.40257977     0.07600
H927        H  0.93564080  0.34055068  0.45721171     0.11300
H928        H  0.53175809  0.39420897  0.44039034     0.11100
H929        H  0.52973058  0.35855652  0.38549443     0.07600
C930        C  0.47532897  0.23031954  0.00636607    -0.11500
C931        C  0.98764240  0.21550749  0.02990440     0.05700
C932        C  0.99956259  0.20031283  0.00652774    -0.10300
C933        C  0.99910646  0.19981066  0.96092573    -0.11900
C934        C  0.98715009  0.21488020  0.93742161    -0.01700
C935        C  0.47527166  0.23017676  0.96056578    -0.10800
C936        C  0.98822442  0.21586317  0.07857512     0.05700
H937        H  0.00979101  0.18920066  0.02343344     0.07600
H938        H  0.00878207  0.18812398  0.94406050     0.11100
H939        H  0.46573540  0.24182242  0.94328884     0.11300
H940        H  0.46549256  0.24181165  0.02331080     0.07600
C941        C  0.49339813  0.24153090  0.10205824    -0.11500
C942        C  0.49397401  0.24173537  0.14780289    -0.10800
C943        C  0.98960750  0.21634824  0.17111568    -0.01700
C944        C  0.98478159  0.19082947  0.14763684    -0.11900
C945        C  0.98391738  0.19052716  0.10199283    -0.10300
H946        H  0.49734183  0.26161708  0.08510747     0.07600
H947        H  0.49788966  0.26182401  0.16487502     0.11300
H948        H  0.98107102  0.17078754  0.16450490     0.11100
H949        H  0.97935425  0.17018260  0.08508783     0.07600
C950        C  0.82141798  0.98718571  0.78636253    -0.11500
C951        C  0.81553217  0.47690111  0.74292866     0.05700
C952        C  0.78672353  0.46634638  0.72558894    -0.10300
C953        C  0.76405436  0.46581117  0.75116035    -0.11900
C954        C  0.76953266  0.47548386  0.79495303    -0.01700
C955        C  0.79847963  0.98620989  0.81237324    -0.10800
C956        C  0.83890262  0.47654955  0.71525242     0.05700
H957        H  0.78179336  0.45859955  0.69201563     0.07600
H958        H  0.74206925  0.45743124  0.73663017     0.11100
H959        H  0.80341993  0.99398599  0.84591016     0.11300
H960        H  0.84354756  0.99541433  0.80030269     0.07600
C961        C  0.86646072  0.50277485  0.70810083    -0.11500
C962        C  0.88681255  0.50290984  0.67751735    -0.10800
C963        C  0.88002065  0.47668640  0.65410487    -0.01700
C964        C  0.85305264  0.45014649  0.66315762    -0.11900
C965        C  0.83264651  0.45015965  0.69314160    -0.10300
H966        H  0.87165759  0.02338830  0.72480024     0.07600
H967        H  0.90753194  0.02364392  0.67155434     0.11300
H968        H  0.84716479  0.42951665  0.64595844     0.11100
H969        H  0.81160257  0.42962920  0.69848384     0.07600
C970        C  0.62967008  0.97798649  0.79490253    -0.11500
C971        C  0.62425012  0.46731859  0.75156839     0.05700
C972        C  0.64098292  0.45487850  0.73436970    -0.10300
C973        C  0.66392139  0.45492267  0.75867778    -0.11900
C974        C  0.67041665  0.46694957  0.80111468    -0.01700
C975        C  0.65251344  0.97767636  0.81957657    -0.10800
C976        C  0.60275959  0.47071091  0.72298448     0.05700
H977        H  0.63675567  0.44563618  0.70158562     0.07600
H978        H  0.67693157  0.44593972  0.74390150     0.11100
H979        H  0.65702316  0.98702493  0.85230204     0.11300
H980        H  0.61717436  0.98773424  0.80903077     0.07600
C981        C  0.57481610  0.46556313  0.73854580    -0.11500
C982        C  0.55455861  0.46786785  0.71024556    -0.10800
C983        C  0.56196929  0.47527906  0.66602183    -0.01700
C984        C  0.59020416  0.48120759  0.65100167    -0.11900
C985        C  0.61035238  0.47911172  0.67911194    -0.10300
H986        H  0.56834894  0.45904795  0.77220294     0.07600
H987        H  0.53290808  0.46317508  0.72262950     0.11300
H988        H  0.59675694  0.48738947  0.61725478     0.11100
H989        H  0.63201493  0.48411649  0.66636810     0.07600
C990        C  0.80991336  0.46489767  0.32393662    -0.11500
C991        C  0.81680554  0.47828740  0.36556812     0.05700
C992        C  0.80096689  0.49202442  0.38125896    -0.10300
C993        C  0.77861991  0.49240176  0.35595920    -0.11900
C994        C  0.77184628  0.47939812  0.31406749    -0.01700
C995        C  0.78779321  0.46573672  0.29812917    -0.10800
C996        C  0.84025275  0.47806292  0.39331021     0.05700
H997        H  0.80566834  0.50219621  0.41346921     0.07600
H998        H  0.76680584  0.50315985  0.36914225     0.11100
H999        H  0.78289877  0.95539408  0.26604752     0.11300
H1000       H  0.82189342  0.95417697  0.31125119     0.07600
C1001       C  0.83979098  0.45115255  0.40269631    -0.11500
C1002       C  0.85968328  0.45066536  0.43355826    -0.10800
C1003       C  0.88053033  0.47716901  0.45515501    -0.01700
C1004       C  0.88194738  0.50429145  0.44375245    -0.11900
C1005       C  0.86191217  0.50468048  0.41338185    -0.10300
H1006       H  0.82321011  0.43034709  0.38760721     0.07600
H1007       H  0.85823641  0.42945585  0.44126603     0.11300
H1008       H  0.89789115  0.52516450  0.45936197     0.11100
H1009       H  0.86287904  0.52574621  0.40621894     0.07600
C1010       C  0.66337652  0.49909802  0.37579647    -0.11500
C1011       C  0.63423046  0.48678327  0.35845138     0.05700
C1012       C  0.62911126  0.47634579  0.31499274    -0.10300
C1013       C  0.65231865  0.47682309  0.29031034    -0.11900
C1014       C  0.68092156  0.48746150  0.30883874    -0.01700
C1015       C  0.68633923  0.49919657  0.35146105    -0.10800
C1016       C  0.60921257  0.48330431  0.38686529     0.05700
H1017       H  0.60691459  0.46664699  0.30070714     0.07600
H1018       H  0.64752596  0.46765911  0.25747606     0.11100
H1019       H  0.70829136  0.00806987  0.36634911     0.11300
H1020       H  0.66834894  0.00818565  0.40866621     0.07600
C1021       C  0.60846219  0.47525566  0.43091670    -0.11500
C1022       C  0.58587347  0.47274409  0.45863384    -0.10800
C1023       C  0.56312740  0.47787779  0.44307744    -0.01700
C1024       C  0.56315359  0.48505664  0.39874573    -0.11900
C1025       C  0.58606504  0.48779457  0.37083826    -0.10300
H1026       H  0.62535852  0.97073953  0.44410219     0.07600
H1027       H  0.58631052  0.96683028  0.49251036     0.11300
H1028       H  0.54591345  0.48920363  0.38595249     0.11100
H1029       H  0.58604455  0.49407629  0.33706926     0.07600
C1030       C  0.71132881  0.48936471  0.10176568    -0.11500
C1031       C  0.72628805  0.47682803  0.07927228     0.05700
C1032       C  0.74128922  0.46507448  0.10354610    -0.10300
C1033       C  0.74116514  0.46574354  0.14932336    -0.11900
C1034       C  0.72582091  0.47794138  0.17165559    -0.01700
C1035       C  0.71094135  0.48974718  0.14736161    -0.10800
C1036       C  0.72577001  0.47581177  0.03070386     0.05700
H1037       H  0.75271752  0.45494902  0.08717664     0.07600
H1038       H  0.75274885  0.45638568  0.16722028     0.11100
H1039       H  0.69930880  0.99971853  0.16358907     0.11300
H1040       H  0.70011074  0.99919001  0.08408206     0.07600
C1041       C  0.69949911  0.46950698  0.00796071    -0.11500
C1042       C  0.69890728  0.46927705  0.96236743    -0.10800
C1043       C  0.72452194  0.47513356  0.93822418    -0.01700
C1044       C  0.75077027  0.48111644  0.96088811    -0.11900
C1045       C  0.75139333  0.48148312  0.00667982    -0.10300
H1046       H  0.67920010  0.46444924  0.02545048     0.07600
H1047       H  0.67819501  0.46426251  0.94609057     0.11300
H1048       H  0.77090457  0.48573423  0.94329588     0.11100
H1049       H  0.77206898  0.48671021  0.02325790     0.07600
C1050       C  0.86435993  0.35404748  0.68030394    -0.11500
C1051       C  0.86493561  0.36089473  0.72490296     0.05700
C1052       C  0.88885890  0.38802975  0.74082744    -0.10300
C1053       C  0.91114261  0.40825918  0.71222835    -0.11900
C1054       C  0.90979978  0.40160290  0.66735710    -0.01700
C1055       C  0.88634912  0.37411589  0.65196698    -0.10800
C1056       C  0.84031829  0.33938819  0.75377858     0.05700
H1057       H  0.88993928  0.39389746  0.77506956     0.07600
H1058       H  0.92901927  0.42926683  0.72499349     0.11100
H1059       H  0.88485176  0.36806927  0.61772319     0.11300
H1060       H  0.84681575  0.33298730  0.66715005     0.07600
C1061       C  0.81069483  0.32401314  0.73784042    -0.11500
C1062       C  0.78792237  0.30076242  0.76172198    -0.10800
C1063       C  0.79402057  0.29261773  0.80257379    -0.01700
C1064       C  0.82316037  0.30923221  0.82006468    -0.11900
C1065       C  0.84618445  0.33236283  0.79575489    -0.10300
H1066       H  0.80522304  0.32949633  0.70622532     0.07600
H1067       H  0.76555441  0.28881677  0.74783160     0.11300
H1068       H  0.82844580  0.30348081  0.85161661     0.11100
H1069       H  0.86876077  0.34378342  0.80892632     0.07600
C1070       C  0.63353130  0.09958899  0.70545938    -0.11500
C1071       C  0.63326817  0.12629062  0.71392079     0.05700
C1072       C  0.61199678  0.13132266  0.69260942    -0.10300
C1073       C  0.59194044  0.11051809  0.66248932    -0.11900
C1074       C  0.59297095  0.08434735  0.65242966    -0.01700
C1075       C  0.61369574  0.07888210  0.67480304    -0.10800
C1076       C  0.65629186  0.14977898  0.74264221     0.05700
H1077       H  0.61116189  0.15160872  0.69889611     0.07600
H1078       H  0.57616421  0.11540591  0.64618761     0.11100
H1079       H  0.61495876  0.05887760  0.66807226     0.11300
H1080       H  0.64982908  0.09528074  0.72136757     0.07600
C1081       C  0.66247471  0.14286103  0.78445049    -0.11500
C1082       C  0.68469173  0.16529845  0.81084157    -0.10800
C1083       C  0.70152759  0.19489198  0.79544511    -0.01700
C1084       C  0.69522815  0.20165300  0.75357924    -0.11900
C1085       C  0.67273974  0.17942817  0.72766825    -0.10300
H1086       H  0.64999176  0.12015165  0.79673688     0.07600
H1087       H  0.68907435  0.15938902  0.84289369     0.11300
H1088       H  0.70766138  0.22422557  0.74077108     0.11100
H1089       H  0.66858551  0.18529455  0.69542670     0.07600
C1090       C  0.85856634  0.35729159  0.43355878    -0.11500
C1091       C  0.86518133  0.35480373  0.38970652     0.05700
C1092       C  0.89364797  0.37572434  0.37320302    -0.10300
C1093       C  0.91524340  0.39805136  0.40048440    -0.11900
C1094       C  0.90873944  0.39962122  0.44470101    -0.01700
C1095       C  0.88007742  0.37920964  0.46069926    -0.10800
C1096       C  0.84235217  0.33001616  0.36216011     0.05700
H1097       H  0.89949404  0.37435719  0.33959978     0.07600
H1098       H  0.93718579  0.41352876  0.38736673     0.11100
H1099       H  0.87420217  0.38013402  0.49447011     0.11300
H1100       H  0.83664116  0.34221996  0.44708437     0.07600
C1101       C  0.82374662  0.30166232  0.38073027    -0.11500
C1102       C  0.80087289  0.27873816  0.35633720    -0.10800
C1103       C  0.79622324  0.28333525  0.31244104    -0.01700
C1104       C  0.81542616  0.31130308  0.29321377    -0.11900
C1105       C  0.83820912  0.33447303  0.31789534    -0.10300
H1106       H  0.82679689  0.29713173  0.41434718     0.07600
H1107       H  0.78678929  0.25734453  0.37200053     0.11300
H1108       H  0.81235757  0.31553741  0.25945125     0.11100
H1109       H  0.85199698  0.35608259  0.30267456     0.07600
C1110       C  0.60575121  0.12126396  0.40099807    -0.11500
C1111       C  0.63078231  0.11896508  0.38845497     0.05700
C1112       C  0.63460415  0.09587320  0.40581557    -0.10300
C1113       C  0.61474964  0.07647211  0.43714366    -0.11900
C1114       C  0.59083166  0.07999808  0.45207627    -0.01700
C1115       C  0.58595425  0.10198027  0.43264845    -0.10800
C1116       C  0.65452013  0.14233711  0.36099976     0.05700
H1117       H  0.65353413  0.09343676  0.39605957     0.07600
H1118       H  0.61881417  0.05940773  0.45076050     0.11100
H1119       H  0.56746574  0.10498528  0.44294315     0.11300
H1120       H  0.60239353  0.13893997  0.38802474     0.07600
C1121       C  0.64760151  0.15189491  0.32190967    -0.11500
C1122       C  0.67043720  0.17482574  0.29725305    -0.10800
C1123       C  0.70030989  0.18897003  0.31203372    -0.01700
C1124       C  0.70708875  0.17941666  0.35117310    -0.11900
C1125       C  0.68446672  0.15615960  0.37519293    -0.10300
H1126       H  0.62461423  0.14156213  0.31047185     0.07600
H1127       H  0.66469974  0.18197201  0.26724568     0.11300
H1128       H  0.72996434  0.18988368  0.36314989     0.11100
H1129       H  0.69027638  0.14942873  0.40553099     0.07600
C1130       C  0.76470476  0.26329379  0.00844993    -0.11500
C1131       C  0.74806517  0.23615504  0.03110950     0.05700
C1132       C  0.73194767  0.20948705  0.00679874    -0.10300
C1133       C  0.73233341  0.21008346  0.96096741    -0.11900
C1134       C  0.74914554  0.23730123  0.93855763    -0.01700
C1135       C  0.76544042  0.26382150  0.96287548    -0.10800
C1136       C  0.74756957  0.23601472  0.07981995     0.05700
H1137       H  0.71924147  0.18811833  0.02313884     0.07600
H1138       H  0.71964644  0.18925524  0.94310541     0.11100
H1139       H  0.77830500  0.28523909  0.94668428     0.11300
H1140       H  0.77679995  0.28436026  0.02588957     0.07600
C1141       C  0.77328062  0.25611062  0.10365458    -0.11500
C1142       C  0.77274554  0.25688863  0.14925735    -0.10800
C1143       C  0.74661480  0.23729187  0.17234434    -0.01700
C1144       C  0.72094433  0.21694638  0.14868292    -0.11900
C1145       C  0.72137883  0.21639601  0.10293537    -0.10300
H1146       H  0.79405488  0.27110719  0.08710810     0.07600
H1147       H  0.79303074  0.27260169  0.16640942     0.11300
H1148       H  0.70041229  0.20155534  0.16547007     0.11100
H1149       H  0.70103295  0.20093781  0.08570894     0.07600
C1150       C  0.72447314  0.71398793  0.28755121     0.79600
N1151       N  0.72368511  0.71482415  0.24322174    -0.78700
C1152       C  0.74656596  0.73750340  0.22080419     0.82000
N1153       N  0.77003289  0.75971659  0.24327924    -0.78700
C1154       C  0.77091319  0.75916617  0.28766469     0.82100
N1155       N  0.74818060  0.73606555  0.30945436    -0.80400
C1156       C  0.72598324  0.71871514  0.82202847     0.79600
N1157       N  0.72689316  0.71621324  0.86625534    -0.78700
C1158       C  0.74921565  0.73863591  0.89016029     0.82000
N1159       N  0.77093092  0.76330919  0.86939246    -0.78700
C1160       C  0.77029300  0.76597302  0.82535085     0.82100
N1161       N  0.74764838  0.74372084  0.80202135    -0.80400
C1162       C  0.74796884  0.98003062  0.28790520     0.79600
N1163       N  0.72664609  0.98376616  0.30836718    -0.78700
C1164       C  0.70459579  0.98473605  0.28535105     0.82000
N1165       N  0.70421936  0.98238638  0.24110889    -0.78700
C1166       C  0.72562923  0.97896628  0.21999051     0.82100
N1167       N  0.74732010  0.97750520  0.24360423    -0.80400
C1168       C  0.74490977  0.97435227  0.82154271     0.79600
N1169       N  0.74658214  0.97609318  0.86594528    -0.78700
C1170       C  0.72342817  0.97449009  0.88976062     0.82000
N1171       N  0.69875163  0.97154385  0.86869775    -0.78700
C1172       C  0.69688063  0.96973505  0.82444256     0.82100
N1173       N  0.71994817  0.97101815  0.80125745    -0.80400
C1174       C  0.98468364  0.73661800  0.28636619     0.79600
N1175       N  0.98395168  0.71327765  0.30805994    -0.78700
C1176       C  0.98615601  0.69147726  0.28616324     0.82000
N1177       N  0.98852932  0.69290715  0.24187729    -0.78700
C1178       C  0.98890783  0.71596164  0.21958206     0.82100
N1179       N  0.98728470  0.73792952  0.24211241    -0.80400
C1180       C  0.99006336  0.73830952  0.82160941     0.79600
N1181       N  0.98713199  0.73722335  0.86591667    -0.78700
C1182       C  0.98797987  0.71506276  0.88906331     0.82000
N1183       N  0.99119804  0.69371635  0.86751485    -0.78700
C1184       C  0.99400067  0.69454579  0.82339736     0.82100
N1185       N  0.99366381  0.71700017  0.80077281    -0.80400
O1186       O  0.91965491  0.50147537  0.50684517    -0.88800
C1187       C  0.57342158  0.56381856  0.61740377     1.11200
O1188       O  0.95500408  0.97654478  0.55473635    -1.36600
O1189       O  0.55172232  0.56673809  0.50328441    -0.90300
O1190       O  0.89506018  0.95139883  0.50494566    -0.91000
O1191       O  0.95466920  0.94452657  0.46258714    -0.79800
O1192       O  0.98604895  0.53481481  0.51314559    -1.01900
C1193       C  0.54057082  0.97676126  0.47416702     1.21300
O1194       O  0.98608250  0.94519766  0.55476985    -1.36800
Mn1195     Mn  0.98638953  0.97668897  0.60207616     1.82100
O1196       O  0.51710753  0.97639040  0.46203783    -0.78900
O1197       O  0.57750366  0.54240848  0.50572756    -0.88300
C1198       C  0.54047452  0.97596549  0.63460529     1.12300
C1199       C  0.57208972  0.56183279  0.48907771     1.07100
O1200       O  0.95527209  0.94623019  0.64735022    -0.79800
O1201       O  0.51745840  0.50757607  0.55425516    -1.33500
O1202       O  0.92735852  0.91822182  0.59658768    -0.99000
C1203       C  0.98521058  0.88964582  0.49031774     1.05800
Mn1204     Mn  0.55986088  0.50995693  0.55477840     1.48600
O1205       O  0.96057741  0.88462511  0.50735062    -0.88200
Mn1206     Mn  0.91255560  0.93672566  0.55476972     1.49600
O1207       O  0.92074223  0.50215937  0.60493891    -0.92100
C1208       C  0.98612950  0.53052438  0.47394614     1.19000
C1209       C  0.89990291  0.97705402  0.61878101     1.11000
Mn1210     Mn  0.98591022  0.97614529  0.50696395     1.81000
O1211       O  0.54502290  0.97612835  0.59544455    -0.94100
Mn1212     Mn  0.95283770  0.51658477  0.55502509     1.49300
C1213       C  0.89970124  0.97659299  0.49089982     1.07600
Mn1214     Mn  0.52603468  0.94266532  0.55369024     1.49900
C1215       C  0.98664715  0.89009287  0.61876008     1.10500
O1216       O  0.92737734  0.91763582  0.51449361    -1.03000
O1217       O  0.57772834  0.54277896  0.60421867    -0.92700
C1218       C  0.93139301  0.92154401  0.47522933     1.21700
O1219       O  0.54476970  0.97650127  0.51334950    -1.03400
O1220       O  0.55343152  0.56860050  0.60115670    -0.90800
O1221       O  0.51134635  0.90969177  0.60198729    -0.90400
O1222       O  0.89473014  0.95208592  0.60287395    -0.90500
Mn1223     Mn  0.52002176  0.55000901  0.55332371     1.47900
O1224       O  0.51732048  0.97622506  0.64659923    -0.78900
C1225       C  0.93185084  0.92298864  0.63570550     1.14800
O1226       O  0.98543642  0.50692185  0.46183895    -0.77700
O1227       O  0.98728002  0.50833973  0.64665387    -0.77300
Mn1228     Mn  0.94606510  0.90294282  0.55600388     1.51100
O1229       O  0.51066509  0.91034006  0.50368702    -0.89600
O1230       O  0.98703146  0.53559735  0.59519019    -0.97200
O1231       O  0.96125758  0.88568928  0.60564774    -0.92200
C1232       C  0.98776682  0.53176736  0.63435861     1.12600
C1233       C  0.01264631  0.65516230  0.73514759    -0.11500
C1234       C  0.99837772  0.62546458  0.75048744     0.05700
C1235       C  0.98485391  0.61922107  0.79201169    -0.10300
C1236       C  0.98439688  0.64194419  0.81664118    -0.11900
C1237       C  0.99708952  0.67116611  0.79989082    -0.01700
C1238       C  0.01170884  0.67765934  0.75932707    -0.10800
C1239       C  0.99575147  0.60100880  0.72162456     0.05700
H1240       H  0.97350433  0.59657587  0.80465111     0.07600
H1241       H  0.97298043  0.63637413  0.84789196     0.11100
H1242       H  0.02217689  0.70012734  0.74603373     0.11300
H1243       H  0.02404434  0.66093599  0.70389199     0.07600
C1244       C  0.99074314  0.60198423  0.67665908    -0.11500
C1245       C  0.98796990  0.57933891  0.64887192    -0.10800
C1246       C  0.98985461  0.55485402  0.66521089    -0.01700
C1247       C  0.99447202  0.55345134  0.71023967    -0.11900
C1248       C  0.99741303  0.57638134  0.73826141    -0.10300
H1249       H  0.98850442  0.62011995  0.66283584     0.07600
H1250       H  0.98425053  0.58103900  0.61436854     0.11300
H1251       H  0.49613743  0.53487920  0.72364832     0.11100
H1252       H  0.50138222  0.57504919  0.77274904     0.07600
C1253       C  0.97677201  0.80162203  0.78641566    -0.11500
C1254       C  0.98958293  0.80797456  0.74442699     0.05700
C1255       C  0.50259265  0.79151281  0.72846342    -0.10300
C1256       C  0.50267902  0.76903027  0.75367523    -0.11900
C1257       C  0.99007548  0.76264895  0.79578866    -0.01700
C1258       C  0.97729725  0.77932854  0.81211446    -0.10800
C1259       C  0.98925865  0.83129061  0.71645337     0.05700
H1260       H  0.51230840  0.79573326  0.69601711     0.07600
H1261       H  0.51279480  0.75670459  0.74013304     0.11100
H1262       H  0.96731680  0.77482743  0.84438054     0.11300
H1263       H  0.96664184  0.81407860  0.79941232     0.07600
C1264       C  0.96247530  0.83157618  0.70860406    -0.11500
C1265       C  0.96164519  0.85120191  0.67765387    -0.10800
C1266       C  0.98769364  0.87109957  0.65439443    -0.01700
C1267       C  0.51477384  0.87178702  0.66414775    -0.11900
C1268       C  0.51548729  0.85200079  0.69460342    -0.10300
H1269       H  0.94194241  0.81575357  0.72500202     0.07600
H1270       H  0.94049276  0.85032552  0.67125588     0.11300
H1271       H  0.53532465  0.88697560  0.64722149     0.11100
H1272       H  0.53648884  0.85244354  0.70048900     0.07600
C1273       C  0.47644076  0.63836675  0.37820540    -0.11500
C1274       C  0.98758014  0.62080615  0.35979911     0.05700
C1275       C  0.99719783  0.62583552  0.31601027    -0.10300
C1276       C  0.99633663  0.64846900  0.29162676    -0.11900
C1277       C  0.98594700  0.66653125  0.31066796    -0.01700
C1278       C  0.47578570  0.66098987  0.35409771    -0.10800
C1279       C  0.98951618  0.59793513  0.38713181     0.05700
H1280       H  0.00603396  0.61278386  0.30098977     0.07600
H1281       H  0.00439411  0.65224058  0.25822840     0.11100
H1282       H  0.46724229  0.67415259  0.36960710     0.11300
H1283       H  0.46814659  0.63460022  0.41147881     0.07600
C1284       C  0.49833044  0.60444599  0.43110543    -0.11500
C1285       C  0.49754095  0.58255938  0.45861857    -0.10800
C1286       C  0.98829123  0.55356750  0.44290597    -0.01700
C1287       C  0.98090257  0.54726915  0.39839723    -0.11900
C1288       C  0.98143842  0.56929474  0.37070150    -0.10300
H1289       H  0.50554803  0.62650653  0.44450288     0.07600
H1290       H  0.50403546  0.58835694  0.49252074     0.11300
H1291       H  0.97388441  0.52515560  0.38538949     0.11100
H1292       H  0.97455948  0.56362256  0.33692235     0.07600
C1293       C  0.96548150  0.77530217  0.37528873    -0.11500
C1294       C  0.98094760  0.80532569  0.36158067     0.05700
C1295       C  0.49668653  0.81249335  0.32178081    -0.10300
C1296       C  0.49716256  0.79002238  0.29643367    -0.11900
C1297       C  0.98251519  0.76017539  0.31104342    -0.01700
C1298       C  0.96647970  0.75302672  0.35050432    -0.10800
C1299       C  0.98167974  0.82896544  0.39022235     0.05700
H1300       H  0.50868913  0.83546359  0.31044272     0.07600
H1301       H  0.50972904  0.79610571  0.26613673     0.11100
H1302       H  0.95481150  0.73016711  0.36235777     0.11300
H1303       H  0.95339620  0.76918664  0.40600197     0.07600
C1304       C  0.95529380  0.82465700  0.41038427    -0.11500
C1305       C  0.95637748  0.84497037  0.44166213    -0.10800
C1306       C  0.98395594  0.86993889  0.45389333    -0.01700
C1307       C  0.51020663  0.87501810  0.43215705    -0.11900
C1308       C  0.50904492  0.85476460  0.40049787    -0.10300
H1309       H  0.93385637  0.80516753  0.40257976     0.07600
H1310       H  0.93564082  0.84055064  0.45721167     0.11300
H1311       H  0.53175794  0.89420890  0.44039023     0.11100
H1312       H  0.52973062  0.85855657  0.38549431     0.07600
C1313       C  0.47532890  0.73031952  0.00636608    -0.11500
C1314       C  0.98764242  0.71550750  0.02990443     0.05700
C1315       C  0.99956262  0.70031283  0.00652775    -0.10300
C1316       C  0.99910647  0.69981066  0.96092571    -0.11900
C1317       C  0.98715010  0.71488022  0.93742161    -0.01700
C1318       C  0.47527162  0.73017673  0.96056578    -0.10800
C1319       C  0.98822446  0.71586318  0.07857515     0.05700
H1320       H  0.00979104  0.68920065  0.02343346     0.07600
H1321       H  0.00878208  0.68812398  0.94406046     0.11100
H1322       H  0.46573535  0.74182237  0.94328885     0.11300
H1323       H  0.46549246  0.74181162  0.02331083     0.07600
C1324       C  0.49339808  0.74153091  0.10205825    -0.11500
C1325       C  0.49397399  0.74173534  0.14780287    -0.10800
C1326       C  0.98960757  0.71634827  0.17111571    -0.01700
C1327       C  0.98478166  0.69082952  0.14763684    -0.11900
C1328       C  0.98391743  0.69052714  0.10199283    -0.10300
H1329       H  0.49734175  0.76161708  0.08510744     0.07600
H1330       H  0.49788962  0.76182396  0.16487498     0.11300
H1331       H  0.98107111  0.67078760  0.16450487     0.11100
H1332       H  0.97935429  0.67018256  0.08508778     0.07600
C1333       C  0.82141796  0.48718572  0.78636250    -0.11500
C1334       C  0.81553216  0.97690110  0.74292867     0.05700
C1335       C  0.78672351  0.96634637  0.72558895    -0.10300
C1336       C  0.76405434  0.96581118  0.75116037    -0.11900
C1337       C  0.76953265  0.97548388  0.79495306    -0.01700
C1338       C  0.79847965  0.48620990  0.81237325    -0.10800
C1339       C  0.83890259  0.97654952  0.71525241     0.05700
H1340       H  0.78179334  0.95859955  0.69201563     0.07600
H1341       H  0.74206922  0.95743125  0.73663019     0.11100
H1342       H  0.80341994  0.49398600  0.84591019     0.11300
H1343       H  0.84354752  0.49541434  0.80030265     0.07600
C1344       C  0.86646074  0.00277480  0.70810095    -0.11500
C1345       C  0.88681258  0.00290979  0.67751745    -0.10800
C1346       C  0.88002062  0.97668637  0.65410485    -0.01700
C1347       C  0.85305257  0.95014650  0.66315750    -0.11900
C1348       C  0.83264642  0.95015963  0.69314148    -0.10300
H1349       H  0.87165754  0.52338838  0.72480002     0.07600
H1350       H  0.90753186  0.52364398  0.67155414     0.11300
H1351       H  0.84716469  0.92951669  0.64595822     0.11100
H1352       H  0.81160243  0.92962919  0.69848362     0.07600
C1353       C  0.62967013  0.47798657  0.79490249    -0.11500
C1354       C  0.62425011  0.96731858  0.75156841     0.05700
C1355       C  0.64098296  0.95487855  0.73436969    -0.10300
C1356       C  0.66392142  0.95492273  0.75867778    -0.11900
C1357       C  0.67041664  0.96694956  0.80111471    -0.01700
C1358       C  0.65251350  0.47767643  0.81957652    -0.10800
C1359       C  0.60275957  0.97071091  0.72298447     0.05700
H1360       H  0.63675574  0.94563627  0.70158557     0.07600
H1361       H  0.67693163  0.94593984  0.74390149     0.11100
H1362       H  0.65702326  0.48702505  0.85230196     0.11300
H1363       H  0.61717444  0.48773438  0.80903071     0.07600
C1364       C  0.57481605  0.96556309  0.73854583    -0.11500
C1365       C  0.55455862  0.96786782  0.71024551    -0.10800
C1366       C  0.56196928  0.97527906  0.66602180    -0.01700
C1367       C  0.59020415  0.98120762  0.65100174    -0.11900
C1368       C  0.61035244  0.97911177  0.67911191    -0.10300
H1369       H  0.56834889  0.95904787  0.77220299     0.07600
H1370       H  0.53290810  0.96317503  0.72262943     0.11300
H1371       H  0.59675695  0.98738952  0.61725493     0.11100
H1372       H  0.63201505  0.98411659  0.66636809     0.07600
C1373       C  0.80991336  0.96489764  0.32393658    -0.11500
C1374       C  0.81680553  0.97828736  0.36556810     0.05700
C1375       C  0.80096686  0.99202436  0.38125901    -0.10300
C1376       C  0.77861988  0.99240167  0.35595921    -0.11900
C1377       C  0.77184625  0.97939808  0.31406750    -0.01700
C1378       C  0.78779320  0.96573671  0.29812919    -0.10800
C1379       C  0.84025275  0.97806290  0.39331017     0.05700
H1380       H  0.80566830  0.00219614  0.41346929     0.07600
H1381       H  0.76680581  0.00315973  0.36914228     0.11100
H1382       H  0.78289875  0.45539407  0.26604748     0.11300
H1383       H  0.82189338  0.45417698  0.31125126     0.07600
C1384       C  0.83979099  0.95115251  0.40269624    -0.11500
C1385       C  0.85968331  0.95066535  0.43355822    -0.10800
C1386       C  0.88053034  0.97716900  0.45515499    -0.01700
C1387       C  0.88194739  0.00429144  0.44375245    -0.11900
C1388       C  0.86191216  0.00468047  0.41338183    -0.10300
H1389       H  0.82321011  0.93034703  0.38760710     0.07600
H1390       H  0.85823646  0.92945585  0.44126598     0.11300
H1391       H  0.89789115  0.02516451  0.45936200     0.11100
H1392       H  0.86287900  0.02574619  0.40621892     0.07600
C1393       C  0.66337646  0.99909796  0.37579640    -0.11500
C1394       C  0.63423041  0.98678320  0.35845134     0.05700
C1395       C  0.62911121  0.97634569  0.31499270    -0.10300
C1396       C  0.65231862  0.97682302  0.29031034    -0.11900
C1397       C  0.68092152  0.98746145  0.30883873    -0.01700
C1398       C  0.68633919  0.99919655  0.35146103    -0.10800
C1399       C  0.60921252  0.98330423  0.38686525     0.05700
H1400       H  0.60691453  0.96664686  0.30070708     0.07600
H1401       H  0.64752595  0.96765904  0.25747610     0.11100
H1402       H  0.70829138  0.50806986  0.36634911     0.11300
H1403       H  0.66834901  0.50818571  0.40866631     0.07600
C1404       C  0.60846212  0.97525560  0.43091663    -0.11500
C1405       C  0.58587345  0.97274405  0.45863381    -0.10800
C1406       C  0.56312737  0.97787774  0.44307739    -0.01700
C1407       C  0.56315352  0.98505656  0.39874566    -0.11900
C1408       C  0.58606497  0.98779446  0.37083824    -0.10300
H1409       H  0.62535861  0.47073957  0.44410224     0.07600
H1410       H  0.58631054  0.46683030  0.49251036     0.11300
H1411       H  0.54591337  0.98920355  0.38595242     0.11100
H1412       H  0.58604446  0.99407615  0.33706926     0.07600
C1413       C  0.71132890  0.98936480  0.10176569    -0.11500
C1414       C  0.72628809  0.97682808  0.07927229     0.05700
C1415       C  0.74128924  0.96507448  0.10354611    -0.10300
C1416       C  0.74116515  0.96574355  0.14932337    -0.11900
C1417       C  0.72582095  0.97794143  0.17165560    -0.01700
C1418       C  0.71094144  0.98974729  0.14736162    -0.10800
C1419       C  0.72577003  0.97581179  0.03070387     0.05700
H1420       H  0.75271752  0.95494898  0.08717662     0.07600
H1421       H  0.75274881  0.95638567  0.16722030     0.11100
H1422       H  0.69930869  0.49971838  0.16358904     0.11300
H1423       H  0.70011061  0.49918990  0.08408207     0.07600
C1424       C  0.69949910  0.96950693  0.00796076    -0.11500
C1425       C  0.69890728  0.96927700  0.96236747    -0.10800
C1426       C  0.72452194  0.97513357  0.93822419    -0.01700
C1427       C  0.75077027  0.98111650  0.96088813    -0.11900
C1428       C  0.75139342  0.98148321  0.00667985    -0.10300
H1429       H  0.67920009  0.96444916  0.02545058     0.07600
H1430       H  0.67819499  0.96426240  0.94609063     0.11300
H1431       H  0.77090455  0.98573434  0.94329592     0.11100
H1432       H  0.77206911  0.98671036  0.02325797     0.07600
C1433       C  0.86435990  0.85404749  0.68030393    -0.11500
C1434       C  0.86493561  0.86089476  0.72490297     0.05700
C1435       C  0.88885891  0.88802977  0.74082747    -0.10300
C1436       C  0.91114262  0.90825920  0.71222835    -0.11900
C1437       C  0.90979978  0.90160292  0.66735709    -0.01700
C1438       C  0.88634911  0.87411593  0.65196700    -0.10800
C1439       C  0.84031830  0.83938822  0.75377860     0.05700
H1440       H  0.88993929  0.89389748  0.77506960     0.07600
H1441       H  0.92901930  0.92926685  0.72499351     0.11100
H1442       H  0.88485175  0.86806931  0.61772324     0.11300
H1443       H  0.84681569  0.83298729  0.66715003     0.07600
C1444       C  0.81069484  0.82401317  0.73784045    -0.11500
C1445       C  0.78792236  0.80076243  0.76172199    -0.10800
C1446       C  0.79402059  0.79261775  0.80257381    -0.01700
C1447       C  0.82316039  0.80923223  0.82006471    -0.11900
C1448       C  0.84618446  0.83236285  0.79575490    -0.10300
H1449       H  0.80522305  0.82949636  0.70622537     0.07600
H1450       H  0.76555438  0.78881677  0.74783161     0.11300
H1451       H  0.82844582  0.80348082  0.85161665     0.11100
H1452       H  0.86876077  0.84378344  0.80892632     0.07600
C1453       C  0.63353127  0.59958902  0.70545941    -0.11500
C1454       C  0.63326817  0.62629065  0.71392082     0.05700
C1455       C  0.61199680  0.63132264  0.69260941    -0.10300
C1456       C  0.59194041  0.61051814  0.66248928    -0.11900
C1457       C  0.59297095  0.58434737  0.65242971    -0.01700
C1458       C  0.61369573  0.57888210  0.67480310    -0.10800
C1459       C  0.65629186  0.64977902  0.74264222     0.05700
H1460       H  0.61116192  0.65160866  0.69889606     0.07600
H1461       H  0.57616416  0.61540597  0.64618752     0.11100
H1462       H  0.61495872  0.55887759  0.66807232     0.11300
H1463       H  0.64982903  0.59528074  0.72136760     0.07600
C1464       C  0.66247476  0.64286106  0.78445044    -0.11500
C1465       C  0.68469178  0.66529845  0.81084156    -0.10800
C1466       C  0.70152760  0.69489200  0.79544511    -0.01700
C1467       C  0.69522811  0.70165303  0.75357929    -0.11900
C1468       C  0.67273970  0.67942821  0.72766832    -0.10300
H1469       H  0.64999185  0.62015169  0.79673682     0.07600
H1470       H  0.68907443  0.65938900  0.84289367     0.11300
H1471       H  0.70766131  0.72422561  0.74077117     0.11100
H1472       H  0.66858545  0.68529462  0.69542681     0.07600
C1473       C  0.85856630  0.85729160  0.43355879    -0.11500
C1474       C  0.86518125  0.85480371  0.38970654     0.05700
C1475       C  0.89364789  0.87572430  0.37320308    -0.10300
C1476       C  0.91524339  0.89805135  0.40048439    -0.11900
C1477       C  0.90873940  0.89962120  0.44470102    -0.01700
C1478       C  0.88007736  0.87920964  0.46069933    -0.10800
C1479       C  0.84235210  0.83001615  0.36216016     0.05700
H1480       H  0.89949396  0.87435715  0.33959988     0.07600
H1481       H  0.93718581  0.91352876  0.38736671     0.11100
H1482       H  0.87420213  0.88013404  0.49447021     0.11300
H1483       H  0.83664113  0.84222001  0.44708440     0.07600
C1484       C  0.82374653  0.80166232  0.38073032    -0.11500
C1485       C  0.80087279  0.77873814  0.35633727    -0.10800
C1486       C  0.79622319  0.78333522  0.31244107    -0.01700
C1487       C  0.81542614  0.81130305  0.29321377    -0.11900
C1488       C  0.83820909  0.83447300  0.31789536    -0.10300
H1489       H  0.82679676  0.79713175  0.41434723     0.07600
H1490       H  0.78678916  0.75734450  0.37200062     0.11300
H1491       H  0.81235757  0.81553736  0.25945121     0.11100
H1492       H  0.85199696  0.85608255  0.30267455     0.07600
C1493       C  0.60575116  0.62126396  0.40099804    -0.11500
C1494       C  0.63078226  0.61896503  0.38845496     0.05700
C1495       C  0.63460415  0.59587314  0.40581553    -0.10300
C1496       C  0.61474958  0.57647210  0.43714363    -0.11900
C1497       C  0.59083163  0.57999804  0.45207630    -0.01700
C1498       C  0.58595426  0.60198023  0.43264845    -0.10800
C1499       C  0.65452009  0.64233706  0.36099974     0.05700
H1500       H  0.65353416  0.59343669  0.39605948     0.07600
H1501       H  0.61881412  0.55940775  0.45076043     0.11100
H1502       H  0.56746578  0.60498526  0.44294314     0.11300
H1503       H  0.60239350  0.63894001  0.38802467     0.07600
C1504       C  0.64760151  0.65189489  0.32190968    -0.11500
C1505       C  0.67043715  0.67482571  0.29725303    -0.10800
C1506       C  0.70030984  0.68896998  0.31203371    -0.01700
C1507       C  0.70708871  0.67941662  0.35117308    -0.11900
C1508       C  0.68446668  0.65615955  0.37519286    -0.10300
H1509       H  0.62461424  0.64156213  0.31047187     0.07600
H1510       H  0.66469969  0.68197200  0.26724567     0.11300
H1511       H  0.72996431  0.68988363  0.36314986     0.11100
H1512       H  0.69027634  0.64942869  0.40553089     0.07600
C1513       C  0.76470479  0.76329377  0.00844995    -0.11500
C1514       C  0.74806519  0.73615501  0.03110950     0.05700
C1515       C  0.73194768  0.70948702  0.00679873    -0.10300
C1516       C  0.73233343  0.71008344  0.96096739    -0.11900
C1517       C  0.74914558  0.73730122  0.93855764    -0.01700
C1518       C  0.76544045  0.76382147  0.96287551    -0.10800
C1519       C  0.74756957  0.73601467  0.07981997     0.05700
H1520       H  0.71924148  0.68811831  0.02313882     0.07600
H1521       H  0.71964645  0.68925523  0.94310539     0.11100
H1522       H  0.77830504  0.78523906  0.94668432     0.11300
H1523       H  0.77679998  0.78436024  0.02588960     0.07600
C1524       C  0.77328062  0.75611057  0.10365461    -0.11500
C1525       C  0.77274553  0.75688857  0.14925736    -0.10800
C1526       C  0.74661479  0.73729182  0.17234434    -0.01700
C1527       C  0.72094436  0.71694636  0.14868289    -0.11900
C1528       C  0.72137881  0.71639596  0.10293536    -0.10300
H1529       H  0.79405487  0.77110712  0.08710814     0.07600
H1530       H  0.79303074  0.77260164  0.16640943     0.11300
H1531       H  0.70041234  0.70155534  0.16547002     0.11100
H1532       H  0.70103292  0.70093776  0.08570892     0.07600
loop_ 
_geom_bond_atom_site_label_1 
_geom_bond_atom_site_label_2 
_geom_bond_distance 
_geom_bond_site_symmetry_2 
_ccdc_geom_bond_type 
C1            N2   1.357       .  A
C1            N6   1.356       .  A
C1          C357   1.473       .  S
N2            C3   1.360       .  A
C3            N4   1.362       .  A
C3          C377   1.481       .  S
N4            C5   1.358       .  A
C5            N6   1.357       .  A
C5          C337   1.481       .  S
C7            N8   1.361       .  A
C7           N12   1.358       .  A
C7          C317   1.484       .  S
N8            C9   1.363       .  A
C9           N10   1.361       .  A
C9          C368   1.481       .  S
N10          C11   1.356       .  A
C11          N12   1.357       .  A
C11         C297   1.479       .  S
C13          N14   1.357       .  A
C13          N18   1.359       .  A
C13         C228   1.479       .  S
N14          C15   1.356       .  A
C15          N16   1.357       .  A
C15         C248   1.479       .  S
N16          C17   1.361       .  A
C17          N18   1.361       .  A
C17         C268   1.479       .  S
C19          N20   1.360       .  A
C19          N24   1.356       .  A
C19         C188   1.481       .  S
N20          C21   1.363       .  A
C21          N22   1.361       .  A
C21         C277   1.482       .  S
N22          C23   1.356       .  A
C23          N24   1.355       .  A
C23         C208   1.478       .  S
C25          N26   1.358       .  A
C25          N30   1.358       .  A
C25         C148   1.478       .  S
N26          C27   1.358       .  A
C27          N28   1.358       .  A
C27         C128   1.483       .  S
N28          C29   1.361       .  A
C29          N30   1.361       .  A
C29         C177   1.482       .  S
C31          N32   1.361       .  A
C31          N36   1.358       .  A
C31         C108   1.482       .  S
N32          C33   1.363       .  A
C33          N34   1.359       .  A
C33         C168   1.479       .  S
N34          C35   1.355       .  A
C35          N36   1.356       .  A
C35          C88   1.476       .  S
O37         Mn63   2.086       .  S
O37         C447   1.271   1_545  A
C38         C308   1.486       .  S
C38          O71   1.271       .  A
C38          O68   1.274       .  A
O39         Mn46   2.164       .  S
O39         Mn57   2.121       .  S
O39         Mn61   2.166       .  S
O39        Mn446   2.119       .  S
O40         Mn74   2.084       .  S
O40          C50   1.270       .  A
O41         Mn57   2.093       .  S
O41          C64   1.272       .  A
O42         Mn61   2.109       .  S
O42          C69   1.253       .  A
O43         Mn63   1.960       .  S
O43        Mn840   1.950       .  S
O43          C59   1.218       .  S
C44         C257   1.478       .  S
C44          O47   1.253       .  A
C44          O70   1.218       .  S
O45         Mn46   2.165       .  S
O45         Mn79   2.121       .  S
O45         Mn61   2.167       .  S
O45        Mn831   2.122       .  S
Mn46         O51   2.107       .  S
Mn46        O841   2.102       .  S
Mn46        O461   2.105       .  S
Mn46       O1201   2.166       .  S
O47        Mn827   2.107   1_455  S
O48         Mn55   2.088       .  S
O48          C50   1.271       .  A
C49         C217   1.477       .  S
C49          O75   1.252       .  A
C49          O62   1.219       .  S
C50         C348   1.479       .  S
O51          C76   1.252       .  A
O52         Mn55   2.121       .  S
O52         Mn74   2.122       .  S
O52       Mn1195   2.166   1_445  S
O52       Mn1210   2.170   1_445  S
O53         Mn57   1.962       .  S
O53         Mn79   1.958       .  S
O53          C76   1.219       .  S
C54         C157   1.485       .  S
C54          O56   1.271       .  A
C54         O846   1.273       .  A
Mn55         O68   2.103       .  S
Mn55        O453   1.957   1_545  S
Mn55        O445   1.961   1_545  S
O56         Mn79   2.087       .  S
Mn57         O73   2.085       .  S
Mn57         O67   1.951       .  S
O58         Mn63   2.094       .  S
O58         C443   1.272   1_545  A
C59         C137   1.481       .  S
C59          O77   1.253       .  A
C60         C197   1.481       .  S
C60          O73   1.271       .  A
C60         O441   1.272       .  A
Mn61        O813   2.107       .  S
Mn61        O460   2.112       .  S
Mn61       O1201   2.170       .  S
O62         Mn65   1.965       .  S
O62        Mn438   1.961       .  S
Mn63        O422   2.119   1_545  S
Mn63         O81   1.957       .  S
C64         C237   1.481       .  S
C64         O420   1.271       .  A
Mn65         O72   2.089       .  S
Mn65         O80   2.099       .  S
Mn65        O811   2.122   1_455  S
Mn65         O70   1.954       .  S
C66         C117   1.484       .  S
C66          O82   1.272       .  A
C66         O838   1.272       .  A
O67         Mn79   1.958       .  S
O67          C69   1.218       .  S
C69         C328   1.478       .  S
O70        Mn438   1.957       .  S
O71         Mn74   2.087       .  S
O72         C832   1.272   1_455  A
Mn74        O809   1.950   1_455  S
Mn74        O847   1.953   1_455  S
O75        Mn812   2.102   1_455  S
C76         C288   1.481       .  S
O77        Mn444   2.112   1_545  S
O78        Mn429   2.105   1_545  S
O78          C83   1.252       .  A
Mn79         O82   2.097       .  S
O80         C820   1.273   1_455  A
O81        Mn840   1.953       .  S
O81          C83   1.217       .  S
C83          C97   1.477       .  S
C84          C85   1.407       .  A
C84          C89   1.394       .  A
C84          H94   1.083       .  S
C85          C90   1.486       .  S
C85          C86   1.406       .  A
C86          C87   1.400       .  A
C86          H91   1.083       .  S
C87          C88   1.405       .  A
C87          H92   1.083       .  S
C88          C89   1.402       .  A
C89          H93   1.083       .  S
C90          C95   1.404       .  A
C90          C99   1.409       .  A
C95          C96   1.390       .  A
C95         H100   1.083       .  S
C96          C97   1.404       .  A
C96         H101   1.083       .  S
C97          C98   1.405       .  A
C98          C99   1.403       .  A
C98         H868   1.083       .  S
C99         H869   1.082       .  S
H102        C864   1.083       .  S
H103        C865   1.082   1_455  S
C104        C105   1.406       .  A
C104        C109   1.403       .  A
C104        H114   1.083       .  S
C105        C110   1.482       .  S
C105        C872   1.403       .  A
C106        C107   1.394       .  A
C106        C871   1.403   1_455  A
C106        H111   1.083       .  S
C107        C874   1.405   1_455  A
C107        H112   1.083       .  S
C108        C109   1.407       .  A
C108        C873   1.405       .  A
C109        H113   1.083       .  S
C110        C115   1.405       .  A
C110        C885   1.403       .  A
C115        C116   1.402       .  A
C115        H120   1.083       .  S
C116        C117   1.408       .  A
C116        H121   1.083       .  S
C117        C884   1.407       .  A
C118        C119   1.395       .  A
C118        C883   1.407   1_455  A
C118        H122   1.083       .  S
C119        C876   1.403   1_455  A
C119        H123   1.083       .  S
C124        C129   1.394       .  A
C124        C891   1.406       .  A
C124        H134   1.083       .  S
C125        C130   1.488       .  S
C125        C126   1.406       .  A
C125        C890   1.406       .  A
C126        C127   1.404       .  A
C126        H131   1.083       .  S
C127        C128   1.408       .  A
C127        H132   1.083       .  S
C128        C895   1.404       .  A
C129        C894   1.404       .  A
C129        H133   1.083       .  S
C130        C139   1.409       .  A
C130        C901   1.404       .  A
C135        C136   1.392       .  A
C135        C896   1.404       .  A
C135        H140   1.083   1_655  S
C136        C903   1.405       .  A
C136        H141   1.083   1_655  S
C137        C138   1.406       .  A
C137        C902   1.405       .  A
C138        C139   1.406       .  A
C138        H142   1.083       .  S
C139        H143   1.083       .  S
C144        C145   1.405       .  A
C144        C149   1.395       .  A
C144        H154   1.083       .  S
C145        C150   1.483       .  S
C145        C912   1.406       .  A
C146        C147   1.402       .  A
C146        C911   1.406       .  A
C146        H151   1.083   1_655  S
C147        C914   1.406       .  A
C147        H152   1.083   1_655  S
C148        C149   1.404       .  A
C148        C913   1.406       .  A
C149        H153   1.083       .  S
C150        C155   1.404       .  A
C150        C925   1.405       .  A
C155        C156   1.396       .  A
C155        H160   1.083       .  S
C156        C157   1.407       .  A
C156        H161   1.083       .  S
C157        C924   1.407       .  A
C158        C159   1.401       .  A
C158        C923   1.407   1_455  A
C158        H162   1.083       .  S
C159        C916   1.405   1_455  A
C159        H163   1.083       .  S
C164        C169   1.400   1_554  A
C164        C931   1.408       .  A
C164        H174   1.082       .  S
C165        C170   1.488       .  S
C165        C166   1.405       .  A
C165        C930   1.408       .  A
C166        C167   1.394   1_554  A
C166        H171   1.082       .  S
C167        C168   1.405       .  A
C167        H172   1.083       .  S
C168        C935   1.404       .  A
C169        C934   1.404       .  A
C169        H173   1.083       .  S
C170        C179   1.407       .  A
C170        C941   1.406       .  A
C175        C176   1.399       .  A
C175        C936   1.406       .  A
C175        H180   1.083       .  S
C176        C943   1.406       .  A
C176        H181   1.083       .  S
C177        C178   1.405       .  A
C177        C942   1.406       .  A
C178        C179   1.396       .  A
C178        H182   1.083       .  S
C179        H183   1.082       .  S
C184        C189   1.403       .  A
C184        C568   1.404       .  A
C184        H194   1.083       .  S
C185        C190   1.477       .  S
C185        C186   1.402       .  A
C185        C567   1.404       .  A
C186        C187   1.392       .  A
C186        H191   1.083       .  S
C187        C188   1.406       .  A
C187        H192   1.083       .  S
C188        C572   1.407       .  A
C189        C571   1.407       .  A
C189        H193   1.083       .  S
C190        C195   1.404       .  A
C190        C199   1.402       .  A
C195        C196   1.401       .  A
C195        H583   1.083       .  S
C196        C197   1.408       .  A
C196        H584   1.083       .  S
C197        C198   1.406       .  A
C198        C199   1.394       .  A
C198        H202   1.083       .  S
C199        H203   1.083       .  S
H200        C578   1.083       .  S
H201        C579   1.083       .  S
C204        C209   1.402       .  A
C204        C588   1.407       .  A
C204        H214   1.083       .  S
C205        C210   1.485       .  S
C205        C206   1.406       .  A
C205        C587   1.407       .  A
C206        C207   1.392       .  A
C206        H211   1.083       .  S
C207        C208   1.403       .  A
C207        H212   1.083       .  S
C208        C592   1.406       .  A
C209        C591   1.406       .  A
C209        H213   1.083       .  S
C210        C215   1.408       .  A
C210        C219   1.404       .  A
C215        C216   1.403       .  A
C215        H220   1.083       .  S
C216        C217   1.406       .  A
C216        H221   1.083       .  S
C217        C218   1.403       .  A
C218        C219   1.391       .  A
C218        H222   1.083       .  S
C219        H223   1.083       .  S
C224        C225   1.405       .  A
C224        C229   1.402       .  A
C224        H617   1.083       .  S
C225        C230   1.478       .  S
C225        C226   1.402       .  A
C226        C227   1.393       .  A
C226        H231   1.083       .  S
C227        C228   1.405       .  A
C227        H232   1.083       .  S
C228        C229   1.407       .  A
C229        H616   1.083       .  S
C230        C235   1.404       .  A
C230        C239   1.403       .  A
H233        C612   1.083       .  S
H234        C607   1.083       .  S
C235        C236   1.400       .  A
C235        H240   1.083       .  S
C236        C237   1.408       .  A
C236        H241   1.083       .  S
C237        C238   1.406       .  A
C238        C239   1.394       .  A
C238        H242   1.083       .  S
C239        H243   1.083       .  S
C244        C245   1.406       .  A
C244        C249   1.393       .  A
C244        H637   1.083       .  S
C245        C250   1.487       .  S
C245        C246   1.407       .  A
C246        C247   1.402       .  A
C246        H251   1.083       .  S
C247        C248   1.406       .  A
C247        H252   1.083       .  S
C248        C249   1.403       .  A
C249        H636   1.083       .  S
C250        C255   1.405       .  A
C250        C259   1.408       .  A
H253        C632   1.083   1_545  S
H254        C627   1.083   1_545  S
C255        C256   1.391       .  A
C255        H643   1.083       .  S
C256        C257   1.404       .  A
C256        H644   1.083       .  S
C257        C258   1.405       .  A
C258        C259   1.404       .  A
C258        H262   1.083       .  S
C259        H263   1.082       .  S
H260        C638   1.083       .  S
H261        C639   1.083       .  S
C264        C265   1.405       .  A
C264        C269   1.394       .  A
C264        H657   1.083       .  S
C265        C270   1.485       .  S
C265        C266   1.406       .  A
C266        C267   1.400       .  A
C266        H271   1.083       .  S
C267        C268   1.406       .  A
C267        H272   1.083       .  S
C268        C269   1.404       .  A
C269        H656   1.083       .  S
C270        C275   1.405       .  A
C270        C279   1.406       .  A
H273        C652   1.083       .  S
H274        C647   1.083       .  S
C275        C276   1.394   1_554  A
C275        H280   1.083       .  S
C276        C277   1.405       .  A
C276        H281   1.083       .  S
C277        C278   1.407       .  A
C278        C279   1.400   1_556  A
C278        H282   1.083       .  S
C279        H283   1.083       .  S
C284        C285   1.404       .  A
C284        C289   1.391       .  A
C284        H294   1.083       .  S
C285        C290   1.488       .  S
C285        C286   1.408       .  A
C286        C287   1.405       .  A
C286        H291   1.083       .  S
C287        C288   1.407       .  A
C287        H292   1.083       .  S
C288        C289   1.404       .  A
C289        H293   1.083       .  S
C290        C295   1.406       .  A
C290        C299   1.407       .  A
C295        C296   1.394       .  A
C295        H300   1.083       .  S
C296        C297   1.402       .  A
C296        H301   1.083       .  S
C297        C298   1.407       .  A
C298        C299   1.403       .  A
C298        H302   1.083       .  S
C299        H303   1.083       .  S
C304        C305   1.405       .  A
C304        C309   1.402       .  A
C304        H314   1.083       .  S
C305        C310   1.483       .  S
C305        C306   1.403       .  A
C306        C307   1.397       .  A
C306        H311   1.083       .  S
C307        C308   1.408       .  A
C307        H312   1.083       .  S
C308        C309   1.407       .  A
C309        H313   1.083       .  S
C310        C315   1.406       .  A
C310        C319   1.403       .  A
C315        C316   1.403       .  A
C315        H320   1.083       .  S
C316        C317   1.407       .  A
C316        H321   1.083       .  S
C317        C318   1.406       .  A
C318        C319   1.396       .  A
C318        H322   1.083       .  S
C319        H323   1.083       .  S
C324        C325   1.404       .  A
C324        C329   1.391       .  A
C324        H334   1.083       .  S
C325        C330   1.488       .  S
C325        C326   1.409       .  A
C326        C327   1.404       .  A
C326        H331   1.082       .  S
C327        C328   1.404       .  A
C327        H332   1.083       .  S
C328        C329   1.404       .  A
C329        H333   1.083       .  S
C330        C335   1.406       .  A
C330        C339   1.407       .  A
C335        C336   1.394       .  A
C335        H340   1.083       .  S
C336        C337   1.404       .  A
C336        H341   1.083       .  S
C337        C338   1.407       .  A
C338        C339   1.402       .  A
C338        H342   1.083       .  S
C339        H343   1.083       .  S
C344        C345   1.403       .  A
C344        C349   1.398       .  A
C344        H354   1.083       .  S
C345        C350   1.477       .  S
C345        C346   1.403       .  A
C346        C347   1.394       .  A
C346        H351   1.083       .  S
C347        C348   1.406       .  A
C347        H352   1.083       .  S
C348        C349   1.408       .  A
C349        H353   1.083       .  S
C350        C355   1.405       .  A
C350        C359   1.403       .  A
C355        C356   1.400       .  A
C355        H360   1.083       .  S
C356        C357   1.405       .  A
C356        H361   1.083       .  S
C357        C358   1.403       .  A
C358        C359   1.393       .  A
C358        H362   1.083       .  S
C359        H363   1.083       .  S
C364        C365   1.405       .  A
C364        C369   1.394   1_554  A
C364        H374   1.082       .  S
C365        C370   1.489       .  S
C365        C366   1.409       .  A
C366        C367   1.401   1_554  A
C366        H371   1.082       .  S
C367        C368   1.405       .  A
C367        H372   1.083       .  S
C368        C369   1.404       .  A
C369        H373   1.083       .  S
C370        C375   1.407       .  A
C370        C379   1.407       .  A
C375        C376   1.395       .  A
C375        H380   1.082       .  S
C376        C377   1.404       .  A
C376        H381   1.083       .  S
C377        C378   1.407       .  A
C378        C379   1.399       .  A
C378        H382   1.083       .  S
C379        H383   1.082       .  S
C384        N385   1.357       .  A
C384        N389   1.356       .  A
C384        C740   1.473       .  S
N385        C386   1.360       .  A
C386        N387   1.362       .  A
C386        C760   1.481       .  S
N387        C388   1.358       .  A
C388        N389   1.357       .  A
C388        C720   1.481       .  S
C390        N391   1.361       .  A
C390        N395   1.358       .  A
C390        C700   1.484       .  S
N391        C392   1.363       .  A
C392        N393   1.361       .  A
C392        C751   1.481       .  S
N393        C394   1.356       .  A
C394        N395   1.357       .  A
C394        C680   1.479       .  S
C396        N397   1.357       .  A
C396        N401   1.359       .  A
C396        C611   1.479       .  S
N397        C398   1.356       .  A
C398        N399   1.357       .  A
C398        C631   1.479       .  S
N399        C400   1.361       .  A
C400        N401   1.361       .  A
C400        C651   1.479       .  S
C402        N403   1.360       .  A
C402        N407   1.356       .  A
C402        C571   1.481       .  S
N403        C404   1.363       .  A
C404        N405   1.361       .  A
C404        C660   1.482       .  S
N405        C406   1.356       .  A
C406        N407   1.355       .  A
C406        C591   1.478       .  S
C408        N409   1.358       .  A
C408        N413   1.358       .  A
C408        C531   1.478       .  S
N409        C410   1.358       .  A
C410        N411   1.358       .  A
C410        C511   1.483       .  S
N411        C412   1.361       .  A
C412        N413   1.361       .  A
C412        C560   1.482       .  S
C414        N415   1.361       .  A
C414        N419   1.358       .  A
C414        C491   1.482       .  S
N415        C416   1.363       .  A
C416        N417   1.359       .  A
C416        C551   1.479       .  S
N417        C418   1.355       .  A
C418        N419   1.356       .  A
C418        C471   1.476       .  S
O420       Mn446   2.086       .  S
C421        C691   1.486       .  S
C421        O454   1.271       .  A
C421        O451   1.274       .  A
O422       Mn429   2.164       .  S
O422       Mn440   2.121       .  S
O422       Mn444   2.166       .  S
O423       Mn457   2.084       .  S
O423        C433   1.270       .  A
O424       Mn440   2.093       .  S
O424        C447   1.272       .  A
O425       Mn444   2.109       .  S
O425        C452   1.253       .  A
O426      Mn1223   1.950       .  S
O426       Mn446   1.960       .  S
O426        C442   1.218       .  S
C427        C640   1.478       .  S
C427        O430   1.253       .  A
C427        O453   1.218       .  S
O428      Mn1214   2.122       .  S
O428       Mn429   2.165       .  S
O428       Mn462   2.121       .  S
O428       Mn444   2.167       .  S
Mn429      O1224   2.102       .  S
Mn429       O434   2.107       .  S
Mn429       O818   2.166   1_565  S
O430      Mn1210   2.107   1_455  S
O431       Mn438   2.088       .  S
O431        C433   1.271       .  A
C432        C600   1.477       .  S
C432        O458   1.252       .  A
C432        O445   1.219       .  S
C433        C731   1.479       .  S
O434        C459   1.252       .  A
O435       Mn812   2.166   1_455  S
O435       Mn438   2.121       .  S
O435       Mn457   2.122       .  S
O435       Mn827   2.170   1_455  S
O436       Mn440   1.962       .  S
O436       Mn462   1.958       .  S
O436        C459   1.219       .  S
C437        C540   1.485       .  S
C437       O1229   1.273       .  A
C437        O439   1.271       .  A
Mn438       O451   2.103       .  S
O439       Mn462   2.087       .  S
Mn440       O456   2.085       .  S
Mn440       O450   1.951       .  S
O441       Mn446   2.094       .  S
C442        C520   1.481       .  S
C442        O460   1.253       .  A
C443        C580   1.481       .  S
C443        O456   1.271       .  A
Mn444      O1196   2.107       .  S
Mn444       O818   2.170   1_565  S
O445       Mn448   1.965       .  S
Mn446       O464   1.957       .  S
C447        C620   1.481       .  S
Mn448       O455   2.089       .  S
Mn448       O463   2.099       .  S
Mn448      O1194   2.122   1_455  S
Mn448       O453   1.954       .  S
C449        C500   1.484       .  S
C449       O1221   1.272       .  A
C449        O465   1.272       .  A
O450       Mn462   1.958       .  S
O450        C452   1.218       .  S
C452        C711   1.478       .  S
O454       Mn457   2.087       .  S
O455       C1215   1.272   1_455  A
Mn457      O1192   1.950   1_455  S
Mn457      O1230   1.953   1_455  S
O458      Mn1195   2.102   1_455  S
C459        C671   1.481       .  S
O461        C466   1.252       .  A
Mn462       O465   2.097       .  S
O463       C1203   1.273   1_455  A
O464      Mn1223   1.953       .  S
O464        C466   1.217       .  S
C466        C480   1.477       .  S
C467        C468   1.407       .  A
C467        C472   1.394       .  A
C467        H477   1.083       .  S
C468        C473   1.486       .  S
C468        C469   1.406       .  A
C469        C470   1.400       .  A
C469        H474   1.083       .  S
C470        C471   1.405       .  A
C470        H475   1.083       .  S
C471        C472   1.402       .  A
C472        H476   1.083       .  S
C473        C478   1.404       .  A
C473        C482   1.409       .  A
C478        C479   1.390       .  A
C478        H483   1.083       .  S
C479        C480   1.404       .  A
C479        H484   1.083       .  S
C480        C481   1.405       .  A
C481        C482   1.403       .  A
C481       H1251   1.083       .  S
C482       H1252   1.082       .  S
H485       C1247   1.083       .  S
H486       C1248   1.082   1_455  S
C487        C488   1.406       .  A
C487        C492   1.403       .  A
C487        H497   1.083       .  S
C488        C493   1.482       .  S
C488       C1255   1.403       .  A
C489       C1254   1.403   1_455  A
C489        C490   1.394       .  A
C489        H494   1.083       .  S
C490       C1257   1.405   1_455  A
C490        H495   1.083       .  S
C491       C1256   1.405       .  A
C491        C492   1.407       .  A
C492        H496   1.083       .  S
C493        C498   1.405       .  A
C493       C1268   1.403       .  A
C498        C499   1.402       .  A
C498        H503   1.083       .  S
C499        C500   1.408       .  A
C499        H504   1.083       .  S
C500       C1267   1.407       .  A
C501       C1266   1.407   1_455  A
C501        C502   1.395       .  A
C501        H505   1.083       .  S
C502       C1259   1.403   1_455  A
C502        H506   1.083       .  S
C507       C1274   1.406       .  A
C507        C512   1.394       .  A
C507        H517   1.083       .  S
C508        C513   1.488       .  S
C508       C1273   1.406       .  A
C508        C509   1.406       .  A
C509        C510   1.404       .  A
C509        H514   1.083       .  S
C510        C511   1.408       .  A
C510        H515   1.083       .  S
C511       C1278   1.404       .  A
C512       C1277   1.404       .  A
C512        H516   1.083       .  S
C513       C1284   1.404       .  A
C513        C522   1.409       .  A
C518       C1279   1.404       .  A
C518        C519   1.392       .  A
C518        H523   1.083   1_655  S
C519       C1286   1.405       .  A
C519        H524   1.083   1_655  S
C520       C1285   1.405       .  A
C520        C521   1.406       .  A
C521        C522   1.406       .  A
C521        H525   1.083       .  S
C522        H526   1.083       .  S
C527        C528   1.405       .  A
C527        C532   1.395       .  A
C527        H537   1.083       .  S
C528        C533   1.483       .  S
C528       C1295   1.406       .  A
C529       C1294   1.406       .  A
C529        C530   1.402       .  A
C529        H534   1.083   1_655  S
C530       C1297   1.406       .  A
C530        H535   1.083   1_655  S
C531       C1296   1.406       .  A
C531        C532   1.404       .  A
C532        H536   1.083       .  S
C533        C538   1.404       .  A
C533       C1308   1.405       .  A
C538        C539   1.396       .  A
C538        H543   1.083       .  S
C539        C540   1.407       .  A
C539        H544   1.083       .  S
C540       C1307   1.407       .  A
C541       C1306   1.407   1_455  A
C541        C542   1.401       .  A
C541        H545   1.083       .  S
C542       C1299   1.405   1_455  A
C542        H546   1.083       .  S
C547       C1314   1.408       .  A
C547        C552   1.400   1_554  A
C547        H557   1.082       .  S
C548        C553   1.488       .  S
C548       C1313   1.408       .  A
C548        C549   1.405       .  A
C549        C550   1.394   1_554  A
C549        H554   1.082       .  S
C550        C551   1.405       .  A
C550        H555   1.083       .  S
C551       C1318   1.404       .  A
C552       C1317   1.404       .  A
C552        H556   1.083       .  S
C553       C1324   1.406       .  A
C553        C562   1.407       .  A
C558       C1319   1.406       .  A
C558        C559   1.399       .  A
C558        H563   1.083       .  S
C559       C1326   1.406       .  A
C559        H564   1.083       .  S
C560       C1325   1.406       .  A
C560        C561   1.405       .  A
C561        C562   1.396       .  A
C561        H565   1.083       .  S
C562        H566   1.082       .  S
C567        C572   1.403       .  A
C567        H577   1.083       .  S
C568        C573   1.477       .  S
C568        C569   1.402       .  A
C569        C570   1.392       .  A
C569        H574   1.083       .  S
C570        C571   1.406       .  A
C570        H575   1.083       .  S
C572        H576   1.083       .  S
C573        C578   1.404   1_565  A
C573        C582   1.402       .  A
C578        C579   1.401       .  A
C579        C580   1.408   1_545  A
C580        C581   1.406       .  A
C581        C582   1.394       .  A
C581        H585   1.083       .  S
C582        H586   1.083       .  S
C587        C592   1.402       .  A
C587        H597   1.083       .  S
C588        C593   1.485       .  S
C588        C589   1.406       .  A
C589        C590   1.392       .  A
C589        H594   1.083       .  S
C590        C591   1.403       .  A
C590        H595   1.083       .  S
C592        H596   1.083       .  S
C593        C598   1.408       .  A
C593        C602   1.404       .  A
C598        C599   1.403       .  A
C598        H603   1.083       .  S
C599        C600   1.406       .  A
C599        H604   1.083       .  S
C600        C601   1.403       .  A
C601        C602   1.391       .  A
C601        H605   1.083       .  S
C602        H606   1.083       .  S
C607        C608   1.405       .  A
C607        C612   1.402       .  A
C608        C613   1.478       .  S
C608        C609   1.402       .  A
C609        C610   1.393       .  A
C609        H614   1.083   1_565  S
C610        C611   1.405       .  A
C610        H615   1.083   1_565  S
C611        C612   1.407       .  A
C613        C618   1.404       .  A
C613        C622   1.403   1_565  A
C618        C619   1.400       .  A
C618        H623   1.083       .  S
C619        C620   1.408       .  A
C619        H624   1.083       .  S
C620        C621   1.406   1_565  A
C621        C622   1.394       .  A
C621        H625   1.083       .  S
C622        H626   1.083       .  S
C627        C628   1.406       .  A
C627        C632   1.393       .  A
C628        C633   1.487       .  S
C628        C629   1.407       .  A
C629        C630   1.402       .  A
C629        H634   1.083       .  S
C630        C631   1.406       .  A
C630        H635   1.083       .  S
C631        C632   1.403       .  A
C633        C638   1.405       .  A
C633        C642   1.408       .  A
C638        C639   1.391       .  A
C639        C640   1.404       .  A
C640        C641   1.405       .  A
C641        C642   1.404       .  A
C641        H645   1.083       .  S
C642        H646   1.082       .  S
C647        C648   1.405       .  A
C647        C652   1.394       .  A
C648        C653   1.485       .  S
C648        C649   1.406       .  A
C649        C650   1.400       .  A
C649        H654   1.083       .  S
C650        C651   1.406       .  A
C650        H655   1.083       .  S
C651        C652   1.404       .  A
C653        C658   1.405       .  A
C653        C662   1.406       .  A
C658        C659   1.394   1_554  A
C658        H663   1.083       .  S
C659        C660   1.405       .  A
C659        H664   1.083       .  S
C660        C661   1.407       .  A
C661        C662   1.400   1_556  A
C661        H665   1.083       .  S
C662        H666   1.083       .  S
C667        C668   1.404       .  A
C667        C672   1.391       .  A
C667        H677   1.083       .  S
C668        C673   1.488       .  S
C668        C669   1.408       .  A
C669        C670   1.405       .  A
C669        H674   1.083       .  S
C670        C671   1.407       .  A
C670        H675   1.083       .  S
C671        C672   1.404       .  A
C672        H676   1.083       .  S
C673        C678   1.406       .  A
C673        C682   1.407       .  A
C678        C679   1.394       .  A
C678        H683   1.083       .  S
C679        C680   1.402       .  A
C679        H684   1.083       .  S
C680        C681   1.407       .  A
C681        C682   1.403       .  A
C681        H685   1.083       .  S
C682        H686   1.083       .  S
C687        C688   1.405       .  A
C687        C692   1.402       .  A
C687        H697   1.083       .  S
C688        C693   1.483       .  S
C688        C689   1.403       .  A
C689        C690   1.397       .  A
C689        H694   1.083       .  S
C690        C691   1.408       .  A
C690        H695   1.083       .  S
C691        C692   1.407       .  A
C692        H696   1.083       .  S
C693        C698   1.406       .  A
C693        C702   1.403       .  A
C698        C699   1.403       .  A
C698        H703   1.083       .  S
C699        C700   1.407       .  A
C699        H704   1.083       .  S
C700        C701   1.406       .  A
C701        C702   1.396       .  A
C701        H705   1.083       .  S
C702        H706   1.083       .  S
C707        C708   1.404       .  A
C707        C712   1.391       .  A
C707        H717   1.083       .  S
C708        C713   1.488       .  S
C708        C709   1.409       .  A
C709        C710   1.404       .  A
C709        H714   1.082       .  S
C710        C711   1.404       .  A
C710        H715   1.083       .  S
C711        C712   1.404       .  A
C712        H716   1.083       .  S
C713        C718   1.406       .  A
C713        C722   1.407       .  A
C718        C719   1.394       .  A
C718        H723   1.083       .  S
C719        C720   1.404       .  A
C719        H724   1.083       .  S
C720        C721   1.407       .  A
C721        C722   1.402       .  A
C721        H725   1.083       .  S
C722        H726   1.083       .  S
C727        C728   1.403       .  A
C727        C732   1.398       .  A
C727        H737   1.083       .  S
C728        C733   1.477       .  S
C728        C729   1.403       .  A
C729        C730   1.394       .  A
C729        H734   1.083       .  S
C730        C731   1.406       .  A
C730        H735   1.083       .  S
C731        C732   1.408       .  A
C732        H736   1.083       .  S
C733        C738   1.405       .  A
C733        C742   1.403       .  A
C738        C739   1.400       .  A
C738        H743   1.083       .  S
C739        C740   1.405       .  A
C739        H744   1.083       .  S
C740        C741   1.403       .  A
C741        C742   1.393       .  A
C741        H745   1.083       .  S
C742        H746   1.083       .  S
C747        C748   1.405       .  A
C747        C752   1.394   1_554  A
C747        H757   1.082       .  S
C748        C753   1.489       .  S
C748        C749   1.409       .  A
C749        C750   1.401   1_554  A
C749        H754   1.082       .  S
C750        C751   1.405       .  A
C750        H755   1.083       .  S
C751        C752   1.404       .  A
C752        H756   1.083       .  S
C753        C758   1.407       .  A
C753        C762   1.407       .  A
C758        C759   1.395       .  A
C758        H763   1.082       .  S
C759        C760   1.404       .  A
C759        H764   1.083       .  S
C760        C761   1.407       .  A
C761        C762   1.399       .  A
C761        H765   1.083       .  S
C762        H766   1.082       .  S
C767        N768   1.357       .  A
C767        N772   1.356       .  A
C767       C1123   1.473       .  S
N768        C769   1.360       .  A
C769        N770   1.362       .  A
C769       C1143   1.481       .  S
N770        C771   1.358       .  A
C771        N772   1.357       .  A
C771       C1103   1.481       .  S
C773        N774   1.361       .  A
C773        N778   1.358       .  A
C773       C1083   1.484       .  S
N774        C775   1.363       .  A
C775        N776   1.361       .  A
C775       C1134   1.481       .  S
N776        C777   1.356       .  A
C777        N778   1.357       .  A
C777       C1063   1.479       .  S
C779        N780   1.357       .  A
C779        N784   1.359       .  A
C779        C994   1.479       .  S
N780        C781   1.356       .  A
C781        N782   1.357       .  A
C781       C1014   1.479       .  S
N782        C783   1.361       .  A
C783        N784   1.361       .  A
C783       C1034   1.479       .  S
C785        N786   1.360       .  A
C785        N790   1.356       .  A
C785        C954   1.481       .  S
N786        C787   1.363       .  A
C787        N788   1.361       .  A
C787       C1043   1.482       .  S
N788        C789   1.356       .  A
C789        N790   1.355       .  A
C789        C974   1.478       .  S
C791        N792   1.358       .  A
C791        N796   1.358       .  A
C791        C914   1.478       .  S
N792        C793   1.358       .  A
C793        N794   1.358       .  A
C793        C894   1.483       .  S
N794        C795   1.361       .  A
C795        N796   1.361       .  A
C795        C943   1.482       .  S
C797        N798   1.361       .  A
C797        N802   1.358       .  A
C797        C874   1.482       .  S
N798        C799   1.363       .  A
C799        N800   1.359       .  A
C799        C934   1.479       .  S
N800        C801   1.355       .  A
C801        N802   1.356       .  A
C801        C854   1.476       .  S
O803       Mn829   2.086       .  S
O803       C1213   1.271   1_545  A
C804       C1074   1.486       .  S
C804        O837   1.271       .  A
C804        O834   1.274       .  A
O805       Mn812   2.164       .  S
O805       Mn823   2.121       .  S
O805       Mn827   2.166       .  S
O805      Mn1212   2.119       .  S
O806       Mn840   2.084       .  S
O806        C816   1.270       .  A
O807       Mn823   2.093       .  S
O807        C830   1.272       .  A
O808       Mn827   2.109       .  S
O808        C835   1.253       .  A
O809       Mn829   1.960       .  S
O809        C825   1.218       .  S
C810       C1023   1.478       .  S
C810        O813   1.253       .  A
C810        O836   1.218       .  S
O811       Mn812   2.165       .  S
O811       Mn845   2.121       .  S
O811       Mn827   2.167       .  S
Mn812       O817   2.107       .  S
Mn812      O1227   2.105       .  S
O814       Mn821   2.088       .  S
O814        C816   1.271       .  A
C815        C983   1.477       .  S
C815        O841   1.252       .  A
C815        O828   1.219       .  S
C816       C1114   1.479       .  S
O817        C842   1.252       .  A
O818       Mn821   2.121       .  S
O818       Mn840   2.122       .  S
O819       Mn823   1.962       .  S
O819       Mn845   1.958       .  S
O819        C842   1.219       .  S
C820        C923   1.485       .  S
C820        O822   1.271       .  A
Mn821       O834   2.103       .  S
Mn821      O1219   1.957   1_545  S
Mn821      O1211   1.961   1_545  S
O822       Mn845   2.087       .  S
Mn823       O839   2.085       .  S
Mn823       O833   1.951       .  S
O824       Mn829   2.094       .  S
O824       C1209   1.272   1_545  A
C825        C903   1.481       .  S
C825        O843   1.253       .  A
C826        C963   1.481       .  S
C826       O1207   1.272       .  A
C826        O839   1.271       .  A
Mn827      O1226   2.112       .  S
O828      Mn1204   1.961       .  S
O828       Mn831   1.965       .  S
Mn829      O1188   2.119   1_545  S
Mn829       O847   1.957       .  S
C830       C1003   1.481       .  S
C830       O1186   1.271       .  A
Mn831       O838   2.089       .  S
Mn831       O846   2.099       .  S
Mn831       O836   1.954       .  S
C832        C883   1.484       .  S
C832        O848   1.272       .  A
O833       Mn845   1.958       .  S
O833        C835   1.218       .  S
C835       C1094   1.478       .  S
O836      Mn1204   1.957       .  S
O837       Mn840   2.087       .  S
C842       C1054   1.481       .  S
O843      Mn1210   2.112   1_545  S
O844      Mn1195   2.105   1_545  S
O844        C849   1.252       .  A
Mn845       O848   2.097       .  S
O847        C849   1.217       .  S
C849        C863   1.477       .  S
C850        C851   1.407   1_455  A
C850        C855   1.394       .  A
C850        H860   1.083       .  S
C851        C856   1.486       .  S
C851        C852   1.406       .  A
C852        C853   1.400       .  A
C852        H857   1.083       .  S
C853        C854   1.405       .  A
C853        H858   1.083       .  S
C854        C855   1.402   1_655  A
C855        H859   1.083       .  S
C856        C861   1.404       .  A
C856        C865   1.409       .  A
C861        C862   1.390       .  A
C861        H866   1.083       .  S
C862        C863   1.404       .  A
C862        H867   1.083       .  S
C863        C864   1.405       .  A
C864        C865   1.403       .  A
C870        C871   1.406       .  A
C870        C875   1.403       .  A
C870        H880   1.083       .  S
C871        C876   1.482       .  S
C872        C873   1.394       .  A
C872        H877   1.083       .  S
C873        H878   1.083       .  S
C874        C875   1.407       .  A
C875        H879   1.083       .  S
C876        C881   1.405       .  A
C881        C882   1.402       .  A
C881        H886   1.083       .  S
C882        C883   1.408       .  A
C882        H887   1.083       .  S
C884        C885   1.395       .  A
C884        H888   1.083       .  S
C885        H889   1.083       .  S
C890        C895   1.394       .  A
C890        H900   1.083       .  S
C891        C896   1.488       .  S
C891        C892   1.406       .  A
C892        C893   1.404       .  A
C892        H897   1.083   1_655  S
C893        C894   1.408       .  A
C893        H898   1.083   1_655  S
C895        H899   1.083       .  S
C896        C905   1.409       .  A
C901        C902   1.392       .  A
C901        H906   1.083       .  S
C902        H907   1.083       .  S
C903        C904   1.406       .  A
C904        C905   1.406       .  A
C904        H908   1.083       .  S
C905        H909   1.083       .  S
C910        C911   1.405       .  A
C910        C915   1.395       .  A
C910        H920   1.083       .  S
C911        C916   1.483       .  S
C912        C913   1.402       .  A
C912        H917   1.083       .  S
C913        H918   1.083       .  S
C914        C915   1.404       .  A
C915        H919   1.083       .  S
C916        C921   1.404       .  A
C921        C922   1.396       .  A
C921        H926   1.083       .  S
C922        C923   1.407       .  A
C922        H927   1.083       .  S
C924        C925   1.401       .  A
C924        H928   1.083       .  S
C925        H929   1.083       .  S
C930        C935   1.400   1_554  A
C930        H940   1.082       .  S
C931        C936   1.488       .  S
C931        C932   1.405       .  A
C932        C933   1.394   1_554  A
C932        H937   1.082   1_655  S
C933        C934   1.405       .  A
C933        H938   1.083   1_655  S
C935        H939   1.083       .  S
C936        C945   1.407       .  A
C941        C942   1.399       .  A
C941        H946   1.083       .  S
C942        H947   1.083       .  S
C943        C944   1.405       .  A
C944        C945   1.396       .  A
C944        H948   1.083       .  S
C945        H949   1.082       .  S
C950       C1334   1.404       .  A
C950        C955   1.403       .  A
C950        H960   1.083       .  S
C951        C956   1.477       .  S
C951       C1333   1.404       .  A
C951        C952   1.402       .  A
C952        C953   1.392       .  A
C952        H957   1.083       .  S
C953        C954   1.406       .  A
C953        H958   1.083       .  S
C954       C1338   1.407       .  A
C955       C1337   1.407       .  A
C955        H959   1.083       .  S
C956        C961   1.404       .  A
C956        C965   1.402       .  A
C961        C962   1.401       .  A
C961       H1349   1.083       .  S
C962        C963   1.408       .  A
C962       H1350   1.083       .  S
C963        C964   1.406       .  A
C964        C965   1.394       .  A
C964        H968   1.083       .  S
C965        H969   1.083       .  S
H966       C1344   1.083       .  S
H967       C1345   1.083       .  S
C970       C1354   1.407       .  A
C970        C975   1.402       .  A
C970        H980   1.083       .  S
C971        C976   1.485       .  S
C971       C1353   1.407       .  A
C971        C972   1.406       .  A
C972        C973   1.392       .  A
C972        H977   1.083       .  S
C973        C974   1.403       .  A
C973        H978   1.083       .  S
C974       C1358   1.406       .  A
C975       C1357   1.406       .  A
C975        H979   1.083       .  S
C976        C981   1.408       .  A
C976        C985   1.404       .  A
C981        C982   1.403       .  A
C981        H986   1.083       .  S
C982        C983   1.406       .  A
C982        H987   1.083       .  S
C983        C984   1.403       .  A
C984        C985   1.391       .  A
C984        H988   1.083       .  S
C985        H989   1.083       .  S
C990        C991   1.405       .  A
C990        C995   1.402       .  A
C990       H1383   1.083       .  S
C991        C996   1.478       .  S
C991        C992   1.402       .  A
C992        C993   1.393       .  A
C992        H997   1.083       .  S
C993        C994   1.405       .  A
C993        H998   1.083       .  S
C994        C995   1.407       .  A
C995       H1382   1.083       .  S
C996       C1001   1.404       .  A
C996       C1005   1.403       .  A
H999       C1378   1.083       .  S
H1000      C1373   1.083       .  S
C1001      C1002   1.400       .  A
C1001      H1006   1.083       .  S
C1002      C1003   1.408       .  A
C1002      H1007   1.083       .  S
C1003      C1004   1.406       .  A
C1004      C1005   1.394       .  A
C1004      H1008   1.083       .  S
C1005      H1009   1.083       .  S
C1010      C1011   1.406       .  A
C1010      C1015   1.393       .  A
C1010      H1403   1.083       .  S
C1011      C1016   1.487       .  S
C1011      C1012   1.407       .  A
C1012      C1013   1.402       .  A
C1012      H1017   1.083       .  S
C1013      C1014   1.406       .  A
C1013      H1018   1.083       .  S
C1014      C1015   1.403       .  A
C1015      H1402   1.083       .  S
C1016      C1021   1.405       .  A
C1016      C1025   1.408       .  A
H1019      C1398   1.083   1_545  S
H1020      C1393   1.083   1_545  S
C1021      C1022   1.391       .  A
C1021      H1409   1.083       .  S
C1022      C1023   1.404       .  A
C1022      H1410   1.083       .  S
C1023      C1024   1.405       .  A
C1024      C1025   1.404       .  A
C1024      H1028   1.083       .  S
C1025      H1029   1.082       .  S
H1026      C1404   1.083       .  S
H1027      C1405   1.083       .  S
C1030      C1031   1.405       .  A
C1030      C1035   1.394       .  A
C1030      H1423   1.083       .  S
C1031      C1036   1.485       .  S
C1031      C1032   1.406       .  A
C1032      C1033   1.400       .  A
C1032      H1037   1.083       .  S
C1033      C1034   1.406       .  A
C1033      H1038   1.083       .  S
C1034      C1035   1.404       .  A
C1035      H1422   1.083       .  S
C1036      C1041   1.405       .  A
C1036      C1045   1.406       .  A
H1039      C1418   1.083       .  S
H1040      C1413   1.083       .  S
C1041      C1042   1.394   1_554  A
C1041      H1046   1.083       .  S
C1042      C1043   1.405       .  A
C1042      H1047   1.083       .  S
C1043      C1044   1.407       .  A
C1044      C1045   1.400   1_556  A
C1044      H1048   1.083       .  S
C1045      H1049   1.083       .  S
C1050      C1051   1.404       .  A
C1050      C1055   1.391       .  A
C1050      H1060   1.083       .  S
C1051      C1056   1.488       .  S
C1051      C1052   1.408       .  A
C1052      C1053   1.405       .  A
C1052      H1057   1.083       .  S
C1053      C1054   1.407       .  A
C1053      H1058   1.083       .  S
C1054      C1055   1.404       .  A
C1055      H1059   1.083       .  S
C1056      C1061   1.406       .  A
C1056      C1065   1.407       .  A
C1061      C1062   1.394       .  A
C1061      H1066   1.083       .  S
C1062      C1063   1.402       .  A
C1062      H1067   1.083       .  S
C1063      C1064   1.407       .  A
C1064      C1065   1.403       .  A
C1064      H1068   1.083       .  S
C1065      H1069   1.083       .  S
C1070      C1071   1.405       .  A
C1070      C1075   1.402       .  A
C1070      H1080   1.083       .  S
C1071      C1076   1.483       .  S
C1071      C1072   1.403       .  A
C1072      C1073   1.397       .  A
C1072      H1077   1.083       .  S
C1073      C1074   1.408       .  A
C1073      H1078   1.083       .  S
C1074      C1075   1.407       .  A
C1075      H1079   1.083       .  S
C1076      C1081   1.406       .  A
C1076      C1085   1.403       .  A
C1081      C1082   1.403       .  A
C1081      H1086   1.083       .  S
C1082      C1083   1.407       .  A
C1082      H1087   1.083       .  S
C1083      C1084   1.406       .  A
C1084      C1085   1.396       .  A
C1084      H1088   1.083       .  S
C1085      H1089   1.083       .  S
C1090      C1091   1.404       .  A
C1090      C1095   1.391       .  A
C1090      H1100   1.083       .  S
C1091      C1096   1.488       .  S
C1091      C1092   1.409       .  A
C1092      C1093   1.404       .  A
C1092      H1097   1.082       .  S
C1093      C1094   1.404       .  A
C1093      H1098   1.083       .  S
C1094      C1095   1.404       .  A
C1095      H1099   1.083       .  S
C1096      C1101   1.406       .  A
C1096      C1105   1.407       .  A
C1101      C1102   1.394       .  A
C1101      H1106   1.083       .  S
C1102      C1103   1.404       .  A
C1102      H1107   1.083       .  S
C1103      C1104   1.407       .  A
C1104      C1105   1.402       .  A
C1104      H1108   1.083       .  S
C1105      H1109   1.083       .  S
C1110      C1111   1.403       .  A
C1110      C1115   1.398       .  A
C1110      H1120   1.083       .  S
C1111      C1116   1.477       .  S
C1111      C1112   1.403       .  A
C1112      C1113   1.394       .  A
C1112      H1117   1.083       .  S
C1113      C1114   1.406       .  A
C1113      H1118   1.083       .  S
C1114      C1115   1.408       .  A
C1115      H1119   1.083       .  S
C1116      C1121   1.405       .  A
C1116      C1125   1.403       .  A
C1121      C1122   1.400       .  A
C1121      H1126   1.083       .  S
C1122      C1123   1.405       .  A
C1122      H1127   1.083       .  S
C1123      C1124   1.403       .  A
C1124      C1125   1.393       .  A
C1124      H1128   1.083       .  S
C1125      H1129   1.083       .  S
C1130      C1131   1.405       .  A
C1130      C1135   1.394   1_554  A
C1130      H1140   1.082       .  S
C1131      C1136   1.489       .  S
C1131      C1132   1.409       .  A
C1132      C1133   1.401   1_554  A
C1132      H1137   1.082       .  S
C1133      C1134   1.405       .  A
C1133      H1138   1.083       .  S
C1134      C1135   1.404       .  A
C1135      H1139   1.083       .  S
C1136      C1141   1.407       .  A
C1136      C1145   1.407       .  A
C1141      C1142   1.395       .  A
C1141      H1146   1.082       .  S
C1142      C1143   1.404       .  A
C1142      H1147   1.083       .  S
C1143      C1144   1.407       .  A
C1144      C1145   1.399       .  A
C1144      H1148   1.083       .  S
C1145      H1149   1.082       .  S
C1150      N1151   1.357       .  A
C1150      N1155   1.356       .  A
C1150      C1506   1.473       .  S
N1151      C1152   1.360       .  A
C1152      N1153   1.362       .  A
C1152      C1526   1.481       .  S
N1153      C1154   1.358       .  A
C1154      N1155   1.357       .  A
C1154      C1486   1.481       .  S
C1156      N1157   1.361       .  A
C1156      N1161   1.358       .  A
C1156      C1466   1.484       .  S
N1157      C1158   1.363       .  A
C1158      N1159   1.361       .  A
C1158      C1517   1.481       .  S
N1159      C1160   1.356       .  A
C1160      N1161   1.357       .  A
C1160      C1446   1.479       .  S
C1162      N1163   1.357       .  A
C1162      N1167   1.359       .  A
C1162      C1377   1.479       .  S
N1163      C1164   1.356       .  A
C1164      N1165   1.357       .  A
C1164      C1397   1.479       .  S
N1165      C1166   1.361       .  A
C1166      N1167   1.361       .  A
C1166      C1417   1.479       .  S
C1168      N1169   1.360       .  A
C1168      N1173   1.356       .  A
C1168      C1337   1.481       .  S
N1169      C1170   1.363       .  A
C1170      N1171   1.361       .  A
C1170      C1426   1.482       .  S
N1171      C1172   1.356       .  A
C1172      N1173   1.355       .  A
C1172      C1357   1.478       .  S
C1174      N1175   1.358       .  A
C1174      N1179   1.358       .  A
C1174      C1297   1.478       .  S
N1175      C1176   1.358       .  A
C1176      N1177   1.358       .  A
C1176      C1277   1.483       .  S
N1177      C1178   1.361       .  A
C1178      N1179   1.361       .  A
C1178      C1326   1.482       .  S
C1180      N1181   1.361       .  A
C1180      N1185   1.358       .  A
C1180      C1257   1.482       .  S
N1181      C1182   1.363       .  A
C1182      N1183   1.359       .  A
C1182      C1317   1.479       .  S
N1183      C1184   1.355       .  A
C1184      N1185   1.356       .  A
C1184      C1237   1.476       .  S
O1186     Mn1212   2.086       .  S
C1187      C1457   1.486       .  S
C1187      O1220   1.271       .  A
C1187      O1217   1.274       .  A
O1188     Mn1195   2.164       .  S
O1188     Mn1206   2.121       .  S
O1188     Mn1210   2.166       .  S
O1189     Mn1223   2.084       .  S
O1189      C1199   1.270       .  A
O1190     Mn1206   2.093       .  S
O1190      C1213   1.272       .  A
O1191     Mn1210   2.109       .  S
O1191      C1218   1.253       .  A
O1192     Mn1212   1.960       .  S
O1192      C1208   1.218       .  S
C1193      C1406   1.478       .  S
C1193      O1196   1.253       .  A
C1193      O1219   1.218       .  S
O1194     Mn1195   2.165       .  S
O1194     Mn1228   2.121       .  S
O1194     Mn1210   2.167       .  S
Mn1195     O1200   2.107       .  S
O1197     Mn1204   2.088       .  S
O1197      C1199   1.271       .  A
C1198      C1366   1.477       .  S
C1198      O1224   1.252       .  A
C1198      O1211   1.219       .  S
C1199      C1497   1.479       .  S
O1200      C1225   1.252       .  A
O1201     Mn1204   2.121       .  S
O1201     Mn1223   2.122       .  S
O1202     Mn1206   1.962       .  S
O1202     Mn1228   1.958       .  S
O1202      C1225   1.219       .  S
C1203      C1306   1.485       .  S
C1203      O1205   1.271       .  A
Mn1204     O1217   2.103       .  S
O1205     Mn1228   2.087       .  S
Mn1206     O1222   2.085       .  S
Mn1206     O1216   1.951       .  S
O1207     Mn1212   2.094       .  S
C1208      C1286   1.481       .  S
C1208      O1226   1.253       .  A
C1209      C1346   1.481       .  S
C1209      O1222   1.271       .  A
O1211     Mn1214   1.965       .  S
Mn1212     O1230   1.957       .  S
C1213      C1386   1.481       .  S
Mn1214     O1221   2.089       .  S
Mn1214     O1229   2.099       .  S
Mn1214     O1219   1.954       .  S
C1215      C1266   1.484       .  S
C1215      O1231   1.272       .  A
O1216     Mn1228   1.958       .  S
O1216      C1218   1.218       .  S
C1218      C1477   1.478       .  S
O1220     Mn1223   2.087       .  S
C1225      C1437   1.481       .  S
O1227      C1232   1.252       .  A
Mn1228     O1231   2.097       .  S
O1230      C1232   1.217       .  S
C1232      C1246   1.477       .  S
C1233      C1234   1.407   1_455  A
C1233      C1238   1.394       .  A
C1233      H1243   1.083       .  S
C1234      C1239   1.486       .  S
C1234      C1235   1.406       .  A
C1235      C1236   1.400       .  A
C1235      H1240   1.083       .  S
C1236      C1237   1.405       .  A
C1236      H1241   1.083       .  S
C1237      C1238   1.402   1_655  A
C1238      H1242   1.083       .  S
C1239      C1244   1.404       .  A
C1239      C1248   1.409       .  A
C1244      C1245   1.390       .  A
C1244      H1249   1.083       .  S
C1245      C1246   1.404       .  A
C1245      H1250   1.083       .  S
C1246      C1247   1.405       .  A
C1247      C1248   1.403       .  A
C1253      C1254   1.406       .  A
C1253      C1258   1.403       .  A
C1253      H1263   1.083       .  S
C1254      C1259   1.482       .  S
C1255      C1256   1.394       .  A
C1255      H1260   1.083       .  S
C1256      H1261   1.083       .  S
C1257      C1258   1.407       .  A
C1258      H1262   1.083       .  S
C1259      C1264   1.405       .  A
C1264      C1265   1.402       .  A
C1264      H1269   1.083       .  S
C1265      C1266   1.408       .  A
C1265      H1270   1.083       .  S
C1267      C1268   1.395       .  A
C1267      H1271   1.083       .  S
C1268      H1272   1.083       .  S
C1273      C1278   1.394       .  A
C1273      H1283   1.083       .  S
C1274      C1279   1.488       .  S
C1274      C1275   1.406       .  A
C1275      C1276   1.404       .  A
C1275      H1280   1.083   1_655  S
C1276      C1277   1.408       .  A
C1276      H1281   1.083   1_655  S
C1278      H1282   1.083       .  S
C1279      C1288   1.409       .  A
C1284      C1285   1.392       .  A
C1284      H1289   1.083       .  S
C1285      H1290   1.083       .  S
C1286      C1287   1.406       .  A
C1287      C1288   1.406       .  A
C1287      H1291   1.083       .  S
C1288      H1292   1.083       .  S
C1293      C1294   1.405       .  A
C1293      C1298   1.395       .  A
C1293      H1303   1.083       .  S
C1294      C1299   1.483       .  S
C1295      C1296   1.402       .  A
C1295      H1300   1.083       .  S
C1296      H1301   1.083       .  S
C1297      C1298   1.404       .  A
C1298      H1302   1.083       .  S
C1299      C1304   1.404       .  A
C1304      C1305   1.396       .  A
C1304      H1309   1.083       .  S
C1305      C1306   1.407       .  A
C1305      H1310   1.083       .  S
C1307      C1308   1.401       .  A
C1307      H1311   1.083       .  S
C1308      H1312   1.083       .  S
C1313      C1318   1.400   1_554  A
C1313      H1323   1.082       .  S
C1314      C1319   1.488       .  S
C1314      C1315   1.405       .  A
C1315      C1316   1.394   1_554  A
C1315      H1320   1.082   1_655  S
C1316      C1317   1.405       .  A
C1316      H1321   1.083   1_655  S
C1318      H1322   1.083       .  S
C1319      C1328   1.407       .  A
C1324      C1325   1.399       .  A
C1324      H1329   1.083       .  S
C1325      H1330   1.083       .  S
C1326      C1327   1.405       .  A
C1327      C1328   1.396       .  A
C1327      H1331   1.083       .  S
C1328      H1332   1.082       .  S
C1333      C1338   1.403       .  A
C1333      H1343   1.083       .  S
C1334      C1339   1.477       .  S
C1334      C1335   1.402       .  A
C1335      C1336   1.392       .  A
C1335      H1340   1.083       .  S
C1336      C1337   1.406       .  A
C1336      H1341   1.083       .  S
C1338      H1342   1.083       .  S
C1339      C1344   1.404   1_565  A
C1339      C1348   1.402       .  A
C1344      C1345   1.401       .  A
C1345      C1346   1.408   1_545  A
C1346      C1347   1.406       .  A
C1347      C1348   1.394       .  A
C1347      H1351   1.083       .  S
C1348      H1352   1.083       .  S
C1353      C1358   1.402       .  A
C1353      H1363   1.083       .  S
C1354      C1359   1.485       .  S
C1354      C1355   1.406       .  A
C1355      C1356   1.392       .  A
C1355      H1360   1.083       .  S
C1356      C1357   1.403       .  A
C1356      H1361   1.083       .  S
C1358      H1362   1.083       .  S
C1359      C1364   1.408       .  A
C1359      C1368   1.404       .  A
C1364      C1365   1.403       .  A
C1364      H1369   1.083       .  S
C1365      C1366   1.406       .  A
C1365      H1370   1.083       .  S
C1366      C1367   1.403       .  A
C1367      C1368   1.391       .  A
C1367      H1371   1.083       .  S
C1368      H1372   1.083       .  S
C1373      C1374   1.405       .  A
C1373      C1378   1.402       .  A
C1374      C1379   1.478       .  S
C1374      C1375   1.402       .  A
C1375      C1376   1.393       .  A
C1375      H1380   1.083   1_565  S
C1376      C1377   1.405       .  A
C1376      H1381   1.083   1_565  S
C1377      C1378   1.407       .  A
C1379      C1384   1.404       .  A
C1379      C1388   1.403   1_565  A
C1384      C1385   1.400       .  A
C1384      H1389   1.083       .  S
C1385      C1386   1.408       .  A
C1385      H1390   1.083       .  S
C1386      C1387   1.406   1_565  A
C1387      C1388   1.394       .  A
C1387      H1391   1.083       .  S
C1388      H1392   1.083       .  S
C1393      C1394   1.406       .  A
C1393      C1398   1.393       .  A
C1394      C1399   1.487       .  S
C1394      C1395   1.407       .  A
C1395      C1396   1.402       .  A
C1395      H1400   1.083       .  S
C1396      C1397   1.406       .  A
C1396      H1401   1.083       .  S
C1397      C1398   1.403       .  A
C1399      C1404   1.405       .  A
C1399      C1408   1.408       .  A
C1404      C1405   1.391       .  A
C1405      C1406   1.404       .  A
C1406      C1407   1.405       .  A
C1407      C1408   1.404       .  A
C1407      H1411   1.083       .  S
C1408      H1412   1.082       .  S
C1413      C1414   1.405       .  A
C1413      C1418   1.394       .  A
C1414      C1419   1.485       .  S
C1414      C1415   1.406       .  A
C1415      C1416   1.400       .  A
C1415      H1420   1.083       .  S
C1416      C1417   1.406       .  A
C1416      H1421   1.083       .  S
C1417      C1418   1.404       .  A
C1419      C1424   1.405       .  A
C1419      C1428   1.406       .  A
C1424      C1425   1.394   1_554  A
C1424      H1429   1.083       .  S
C1425      C1426   1.405       .  A
C1425      H1430   1.083       .  S
C1426      C1427   1.407       .  A
C1427      C1428   1.400   1_556  A
C1427      H1431   1.083       .  S
C1428      H1432   1.083       .  S
C1433      C1434   1.404       .  A
C1433      C1438   1.391       .  A
C1433      H1443   1.083       .  S
C1434      C1439   1.488       .  S
C1434      C1435   1.408       .  A
C1435      C1436   1.405       .  A
C1435      H1440   1.083       .  S
C1436      C1437   1.407       .  A
C1436      H1441   1.083       .  S
C1437      C1438   1.404       .  A
C1438      H1442   1.083       .  S
C1439      C1444   1.406       .  A
C1439      C1448   1.407       .  A
C1444      C1445   1.394       .  A
C1444      H1449   1.083       .  S
C1445      C1446   1.402       .  A
C1445      H1450   1.083       .  S
C1446      C1447   1.407       .  A
C1447      C1448   1.403       .  A
C1447      H1451   1.083       .  S
C1448      H1452   1.083       .  S
C1453      C1454   1.405       .  A
C1453      C1458   1.402       .  A
C1453      H1463   1.083       .  S
C1454      C1459   1.483       .  S
C1454      C1455   1.403       .  A
C1455      C1456   1.397       .  A
C1455      H1460   1.083       .  S
C1456      C1457   1.408       .  A
C1456      H1461   1.083       .  S
C1457      C1458   1.407       .  A
C1458      H1462   1.083       .  S
C1459      C1464   1.406       .  A
C1459      C1468   1.403       .  A
C1464      C1465   1.403       .  A
C1464      H1469   1.083       .  S
C1465      C1466   1.407       .  A
C1465      H1470   1.083       .  S
C1466      C1467   1.406       .  A
C1467      C1468   1.396       .  A
C1467      H1471   1.083       .  S
C1468      H1472   1.083       .  S
C1473      C1474   1.404       .  A
C1473      C1478   1.391       .  A
C1473      H1483   1.083       .  S
C1474      C1479   1.488       .  S
C1474      C1475   1.409       .  A
C1475      C1476   1.404       .  A
C1475      H1480   1.082       .  S
C1476      C1477   1.404       .  A
C1476      H1481   1.083       .  S
C1477      C1478   1.404       .  A
C1478      H1482   1.083       .  S
C1479      C1484   1.406       .  A
C1479      C1488   1.407       .  A
C1484      C1485   1.394       .  A
C1484      H1489   1.083       .  S
C1485      C1486   1.404       .  A
C1485      H1490   1.083       .  S
C1486      C1487   1.407       .  A
C1487      C1488   1.402       .  A
C1487      H1491   1.083       .  S
C1488      H1492   1.083       .  S
C1493      C1494   1.403       .  A
C1493      C1498   1.398       .  A
C1493      H1503   1.083       .  S
C1494      C1499   1.477       .  S
C1494      C1495   1.403       .  A
C1495      C1496   1.394       .  A
C1495      H1500   1.083       .  S
C1496      C1497   1.406       .  A
C1496      H1501   1.083       .  S
C1497      C1498   1.408       .  A
C1498      H1502   1.083       .  S
C1499      C1504   1.405       .  A
C1499      C1508   1.403       .  A
C1504      C1505   1.400       .  A
C1504      H1509   1.083       .  S
C1505      C1506   1.405       .  A
C1505      H1510   1.083       .  S
C1506      C1507   1.403       .  A
C1507      C1508   1.393       .  A
C1507      H1511   1.083       .  S
C1508      H1512   1.083       .  S
C1513      C1514   1.405       .  A
C1513      C1518   1.394   1_554  A
C1513      H1523   1.082       .  S
C1514      C1519   1.489       .  S
C1514      C1515   1.409       .  A
C1515      C1516   1.401   1_554  A
C1515      H1520   1.082       .  S
C1516      C1517   1.405       .  A
C1516      H1521   1.083       .  S
C1517      C1518   1.404       .  A
C1518      H1522   1.083       .  S
C1519      C1524   1.407       .  A
C1519      C1528   1.407       .  A
C1524      C1525   1.395       .  A
C1524      H1529   1.082       .  S
C1525      C1526   1.404       .  A
C1525      H1530   1.083       .  S
C1526      C1527   1.407       .  A
C1527      C1528   1.399       .  A
C1527      H1531   1.083       .  S
C1528      H1532   1.082       .  S
